geometry optimzed in LAMMPS
_audit_creation_date              2020-11-30 
_audit_creation_method            'lammps2cif' 
_symmetry_space_group_name_H-M    'P1' 
_symmetry_Int_Tables_number       1 
_symmetry_cell_setting            triclinic 
loop_ 
_symmetry_equiv_pos_as_xyz 
  x,y,z 
_cell_length_a                    43.09669301 
_cell_length_b                    43.09700599084365 
_cell_length_c                    42.66317015479998 
_cell_angle_alpha                 89.9935125303424 
_cell_angle_beta                  89.99893026279926 
_cell_angle_gamma                 120.01096768281145 
loop_ 
_atom_site_label 
_atom_site_type_symbol 
_atom_site_fract_x 
_atom_site_fract_y 
_atom_site_fract_z 
_atom_site_charge 
O1          O  0.31771937  0.36305919  0.54226075    -0.78900
O2          O  0.29439356  0.38400776  0.68192894    -0.63600
O3          O  0.32521208  0.40400153  0.59667410    -1.10200
C4          C  0.42407892  0.39582537  0.62666177     1.08000
O5          O  0.34924271  0.41293499  0.70276937    -0.76800
O6          O  0.39242742  0.45564021  0.65592161    -0.64400
Ni7        Ni  0.29247709  0.38427170  0.56262385     1.34900
C8          C  0.40270113  0.46536360  0.62795973     0.86700
O9          O  0.27133233  0.40500134  0.63237822    -0.77300
O10         O  0.26473449  0.40407112  0.57980195    -0.87600
C11         C  0.31535157  0.39704452  0.70522866     0.86300
O12         O  0.26017175  0.33897194  0.58066535    -0.65800
O13         O  0.42147451  0.41167560  0.65079264    -0.85100
C14         C  0.25593709  0.32600896  0.60800802     0.87100
C15         C  0.25720491  0.40916107  0.60761714     1.08700
H16         H  0.33751780  0.35820557  0.64832696     0.40500
O17         O  0.34697256  0.38330373  0.64373201    -1.07700
O18         O  0.39649259  0.44320541  0.60574737    -0.64400
Ni19       Ni  0.36213396  0.39233606  0.60091084     1.26300
O20         O  0.27482467  0.34336897  0.63153640    -0.64600
O21         O  0.39924250  0.38084964  0.60654652    -0.76900
C22         C  0.35130544  0.37684246  0.53807592     0.86500
O23         O  0.37373562  0.39864135  0.55753525    -0.64100
Ni24       Ni  0.38286221  0.41132425  0.67411330     1.27400
Ni25       Ni  0.30860524  0.39353715  0.63879824     1.26100
H26         H  0.33606302  0.42962787  0.59422552     0.41100
O27         O  0.37171285  0.30892908  0.45932769    -0.78900
O28         O  0.39294213  0.28578491  0.31960718    -0.63600
O29         O  0.41269597  0.31647641  0.40489655    -1.10200
C30         C  0.40466910  0.41537501  0.37482813     1.08000
O31         O  0.42196981  0.34064181  0.29879362    -0.76800
O32         O  0.46454917  0.38357289  0.34583708    -0.64400
Ni33       Ni  0.39283356  0.28364353  0.43889020     1.34900
C34         C  0.47417239  0.39393130  0.37379460     0.86700
O35         O  0.41379461  0.26265742  0.36914342    -0.77300
O36         O  0.41253900  0.25582469  0.42169487    -0.87600
C37         C  0.40603295  0.30674974  0.29632180     0.86300
O38         O  0.34753696  0.25150105  0.42075323    -0.65800
O39         O  0.42076693  0.41285747  0.35083664    -0.85100
C40         C  0.33470452  0.24729951  0.39336060     0.87100
C41         C  0.41776935  0.24839626  0.39389252     1.08700
H42         H  0.36709992  0.32888969  0.35307600     0.40500
O43         O  0.39216187  0.33831236  0.35776401    -1.07700
O44         O  0.45191607  0.38779583  0.39591114    -0.64400
Ni45       Ni  0.40102001  0.35339402  0.40060273     1.26300
O46         O  0.35218562  0.26617648  0.36987026    -0.64600
O47         O  0.38951089  0.39047442  0.39486903    -0.76900
C48         C  0.38547784  0.34251443  0.46349884     0.86500
O49         O  0.40717656  0.36496062  0.44398710    -0.64100
Ni50       Ni  0.42038530  0.37424973  0.32748481     1.27400
Ni51       Ni  0.40236917  0.29994489  0.36273553     1.26100
H52         H  0.43831588  0.32733074  0.40741072     0.41100
O53         O  0.18317820  0.04648648  0.45968100    -0.78900
O54         O  0.20637741  0.08843416  0.31948855    -0.63600
O55         O  0.17580987  0.07929959  0.40470465    -1.10200
C56         C  0.07659967  0.47191171  0.37546794     1.08000
O57         O  0.15145426  0.06352806  0.29896259    -0.76800
O58         O  0.10790490  0.06282353  0.34543252    -0.64400
Ni59       Ni  0.20862363  0.09261555  0.43873905     1.34900
C60         C  0.09784317  0.06273689  0.37337995     0.86700
O61         O  0.23001894  0.13333343  0.36845284    -0.77300
O62         O  0.23662415  0.13984855  0.42097734    -0.87600
C63         C  0.18534659  0.08081946  0.29628955     0.86300
O64         O  0.24065389  0.07905661  0.42106761    -0.65800
O65         O  0.07934085  0.48991566  0.35097274    -0.85100
C66         C  0.24470103  0.06978897  0.39389249     0.87100
C67         C  0.24427137  0.15199009  0.39301388     1.08700
H68         H  0.16284767  0.02027747  0.35380616     0.40500
O69         O  0.15361945  0.03617403  0.35814065    -1.07700
O70         O  0.10439751  0.04736239  0.39585638    -0.64400
Ni71       Ni  0.13860821  0.03073126  0.40097469     1.26300
O72         O  0.22572277  0.06788327  0.37031089    -0.64600
O73         O  0.10125372  0.48214714  0.39581882    -0.76900
C74         C  0.14957960  0.02671566  0.46385861     0.86500
O75         O  0.12718421  0.02610178  0.44437378    -0.64100
Ni76       Ni  0.11785186  0.02819033  0.32760020     1.27400
Ni77       Ni  0.19233253  0.08464109  0.36258627     1.26100
H78         H  0.16512613  0.09425487  0.40684707     0.41100
O79         O  0.12880014  0.43765219  0.54201466    -0.78900
O80         O  0.10989615  0.39468862  0.68183189    -0.63600
O81         O  0.08831053  0.40425460  0.59672153    -1.10200
C82         C  0.09601524  0.01109290  0.62671674     1.08000
O83         O  0.07911366  0.41870774  0.70245876    -0.76800
O84         O  0.03642124  0.41964722  0.65591646    -0.64400
Ni85       Ni  0.10784836  0.39125724  0.56252324     1.34900
C86         C  0.02658093  0.42017150  0.62800410     0.86700
O87         O  0.08881786  0.35010673  0.63249902    -0.77300
O88         O  0.08829467  0.34381718  0.57989926    -0.87600
C89         C  0.09623404  0.40192788  0.70509652     0.86300
O90         O  0.15335687  0.40445729  0.58022200    -0.65800
O91         O  0.08052795  0.49273764  0.65101670    -0.85100
C92         C  0.16679524  0.41395971  0.60733569     0.87100
C93         C  0.08400707  0.33152735  0.60779889     1.08700
H94         H  0.13401194  0.46290949  0.64804927     0.40500
O95         O  0.10896818  0.44694094  0.64356450    -1.07700
O96         O  0.04865839  0.43597470  0.60570692    -0.64400
Ni97       Ni  0.09957404  0.45273888  0.60077772     1.26300
O98         O  0.14976583  0.41589170  0.63093409    -0.64600
O99         O  0.11069905  0.50120294  0.60633361    -0.76900
C100        C  0.11496528  0.45742714  0.53794565     0.86500
O101        O  0.09303507  0.45780215  0.55740304    -0.64100
Ni102      Ni  0.08079876  0.45428953  0.67411350     1.27400
Ni103      Ni  0.09954745  0.39866151  0.63875714     1.26100
H104        H  0.06266905  0.38926057  0.59457499     0.41100
O105        O  0.05493190  0.17432935  0.54187802    -0.78900
O106        O  0.09724995  0.19767837  0.68188305    -0.63600
O107        O  0.08792934  0.16698677  0.59670301    -1.10200
C108        C  0.48065600  0.06779660  0.62618808     1.08000
O109        O  0.07243632  0.14277796  0.70246063    -0.76800
O110        O  0.07169640  0.09923202  0.65600413    -0.64400
Ni111      Ni  0.10116957  0.19974050  0.56263486     1.34900
C112        C  0.07152616  0.08911233  0.62806581     0.86700
O113        O  0.14200516  0.22132068  0.63279040    -0.77300
O114        O  0.14848856  0.22767453  0.58024235    -0.87600
C115        C  0.08970002  0.17667052  0.70509827     0.86300
O116        O  0.08783826  0.23192775  0.58035709    -0.65800
O117        O  0.49875633  0.07056398  0.65061874    -0.85100
C118        C  0.07852819  0.23594608  0.60752619     0.87100
C119        C  0.16064576  0.23546546  0.60819273     1.08700
H120        H  0.02902326  0.15403473  0.64772154     0.40500
O121        O  0.04492417  0.14483189  0.64335272    -1.07700
O122        O  0.05605154  0.09558846  0.60562214    -0.64400
Ni123      Ni  0.03937984  0.12977592  0.60053313     1.26300
O124        O  0.07649970  0.21688151  0.63108101    -0.64600
O125        O  0.49081755  0.09241572  0.60580566    -0.76900
C126        C  0.03521544  0.14072976  0.53766890     0.86500
O127        O  0.03464372  0.11832974  0.55713277    -0.64100
Ni128      Ni  0.03705817  0.10912043  0.67390766     1.27400
Ni129      Ni  0.09335907  0.18357647  0.63879218     1.26100
H130        H  0.10288844  0.15630881  0.59454657     0.41100
O131        O  0.44637845  0.12007442  0.45934797    -0.78900
O132        O  0.40343199  0.10118327  0.31961882    -0.63600
O133        O  0.41296634  0.07953643  0.40471229    -1.10200
C134        C  0.01984597  0.08727423  0.37471961     1.08000
O135        O  0.42744399  0.07037854  0.29901794    -0.76800
O136        O  0.42850259  0.02769340  0.34546387    -0.64400
Ni137      Ni  0.39993773  0.09900644  0.43892666     1.34900
C138        C  0.42894160  0.01783328  0.37338625     0.86700
O139        O  0.35885055  0.08013536  0.36899243    -0.77300
O140        O  0.35246751  0.07931554  0.42160236    -0.87600
C141        C  0.41065037  0.08748024  0.29636859     0.86300
O142        O  0.41295807  0.14447401  0.42122209    -0.65800
O143        O  0.00156157  0.07189958  0.35036497    -0.85100
C144        C  0.42257544  0.15798288  0.39413996     0.87100
C145        C  0.34022147  0.07516454  0.39369671     1.08700
H146        H  0.47165594  0.12527620  0.35342722     0.40500
O147        O  0.45567653  0.10021945  0.35788876    -1.07700
O148        O  0.44466390  0.03988143  0.39571288    -0.64400
Ni149      Ni  0.46144563  0.09078705  0.40067133     1.26300
O150        O  0.42467287  0.14103481  0.37055652    -0.64600
O151        O  0.00990780  0.10187798  0.39514125    -0.76900
C152        C  0.46609581  0.10618576  0.46348103     0.86500
O153        O  0.46646230  0.08422644  0.44405224    -0.64100
Ni154      Ni  0.46307878  0.07212458  0.32730650     1.27400
Ni155      Ni  0.40739707  0.09082020  0.36269872     1.26100
H156        H  0.39796783  0.05389345  0.40683457     0.41100
O157        O  0.34935534  0.41304122  0.79875399    -0.78900
O158        O  0.37372237  0.39834521  0.94398046    -0.63600
O159        O  0.34707319  0.38328268  0.85775093    -1.10200
C160        C  0.25718116  0.40891085  0.89387025     1.08000
O161        O  0.31769261  0.36282600  0.95929944    -0.76800
O162        O  0.26024483  0.33865159  0.92074630    -0.64400
Ni163      Ni  0.38299385  0.41151942  0.82746373     1.34900
C164        C  0.25604448  0.32580227  0.89336214     0.86700
O165        O  0.39928780  0.38071957  0.89487093    -0.77300
O166        O  0.42163226  0.41196240  0.85082561    -0.87600
C167        C  0.35128048  0.37662645  0.96348612     0.86300
O168        O  0.39227297  0.45567837  0.84579934    -0.65800
O169        O  0.26460092  0.40367137  0.92167407    -0.85100
C170        C  0.40264747  0.46532729  0.87375068     0.87100
C171        C  0.42418250  0.39589344  0.87482640     1.08700
H172        H  0.33605691  0.42942389  0.90737724     0.40500
O173        O  0.32522104  0.40380670  0.90487181    -1.07700
O174        O  0.27492346  0.34327206  0.86986697    -0.64400
Ni175      Ni  0.30868491  0.39346078  0.86271436     1.26300
O176        O  0.39653354  0.44308683  0.89588055    -0.64600
O177        O  0.27140432  0.40489023  0.86911915    -0.76900
C178        C  0.31546002  0.39710196  0.79629103     0.86500
O179        O  0.29450970  0.38401669  0.81958623    -0.64100
Ni180      Ni  0.29240292  0.38394865  0.93887098     1.27400
Ni181      Ni  0.36216668  0.39217540  0.90059072     1.26100
H182        H  0.33766098  0.35820964  0.85307092     0.41100
O183        O  0.42189430  0.34059774  0.20277869    -0.78900
O184        O  0.40743962  0.36495263  0.05754150    -0.63600
O185        O  0.39215113  0.33827638  0.14376283    -1.10200
C186        C  0.41788918  0.24840717  0.10774853     1.08000
O187        O  0.37185708  0.30892947  0.04228416    -0.76800
O188        O  0.34769680  0.25144552  0.08076671    -0.64400
Ni189      Ni  0.42021289  0.37418658  0.17412078     1.34900
C190        C  0.33477697  0.24720949  0.10812503     0.86700
O191        O  0.38970927  0.39052952  0.10653412    -0.77300
O192        O  0.42051661  0.41277373  0.15079154    -0.87600
C193        C  0.38564069  0.34251325  0.03808855     0.86300
O194        O  0.46450996  0.38375595  0.15589768    -0.65800
O195        O  0.41273341  0.25587024  0.07993000    -0.85100
C196        C  0.47420209  0.39397616  0.12792210     0.87100
C197        C  0.40468046  0.41537166  0.12664459     1.08700
H198        H  0.43841476  0.32727801  0.09425243     0.40500
O199        O  0.41279087  0.31644308  0.09671711    -1.07700
O200        O  0.35217783  0.26609208  0.13164318    -0.64400
Ni201      Ni  0.40235854  0.29989158  0.13886027     1.26300
O202        O  0.45202752  0.38773321  0.10571801    -0.64600
O203        O  0.41381467  0.26261255  0.13249177    -0.76900
C204        C  0.40596263  0.30670714  0.20526711     0.86500
O205        O  0.39285534  0.28573208  0.18199268    -0.64100
Ni206      Ni  0.39300781  0.28365993  0.06270368     1.27400
Ni207      Ni  0.40115616  0.35339103  0.10092571     1.26100
H208        H  0.36707066  0.32884112  0.14836756     0.41100
O209        O  0.15152647  0.06378179  0.20240585    -0.78900
O210        O  0.12719546  0.02592102  0.05710808    -0.63600
O211        O  0.15358736  0.03614643  0.14335223    -1.10200
C212        C  0.24429604  0.15186810  0.10827647     1.08000
O213        O  0.18321314  0.04620776  0.04191607    -0.76800
O214        O  0.24078729  0.07913999  0.08041420    -0.64400
Ni215      Ni  0.11788238  0.02832143  0.17389054     1.34900
C216        C  0.24472867  0.06971217  0.10755860     0.86700
O217        O  0.10121173  0.48208951  0.10576611    -0.77300
O218        O  0.07936329  0.48996800  0.15061367    -0.87600
C219        C  0.14961867  0.02648622  0.03767662     0.86300
O220        O  0.10793872  0.06290264  0.15594347    -0.65800
O221        O  0.23647574  0.13976049  0.08031171    -0.85100
C222        C  0.09787047  0.06275722  0.12799140     0.87100
C223        C  0.07660315  0.47190281  0.12615916     1.08700
H224        H  0.16515035  0.09415436  0.09459028     0.40500
O225        O  0.17581407  0.07918100  0.09673047    -1.07700
O226        O  0.22560708  0.06759418  0.13109431    -0.64400
Ni227      Ni  0.19238282  0.08454428  0.13882309     1.26300
O228        O  0.10439691  0.04731464  0.10555687    -0.64600
O229        O  0.23019072  0.13317386  0.13285789    -0.76900
C230        C  0.18541630  0.08088746  0.20510109     0.86500
O231        O  0.20644707  0.08834385  0.18191701    -0.64100
Ni232      Ni  0.20858550  0.09244600  0.06267980     1.27400
Ni233      Ni  0.13858418  0.03063719  0.10052097     1.26100
H234        H  0.16275126  0.02021240  0.14773152     0.41100
O235        O  0.07922283  0.41869887  0.79901372    -0.78900
O236        O  0.09313236  0.45777581  0.94404414    -0.63600
O237        O  0.10908739  0.44702097  0.85786219    -1.10200
C238        C  0.08409853  0.33157791  0.89367416     1.08000
O239        O  0.12903901  0.43773122  0.95927364    -0.76800
O240        O  0.15334532  0.40419369  0.92118090    -0.64400
Ni241      Ni  0.08095165  0.45435316  0.82727640     1.34900
C242        C  0.16689755  0.41391526  0.89412506     0.86700
O243        O  0.11066305  0.50121348  0.89511717    -0.77300
O244        O  0.08070805  0.49283755  0.85031443    -0.87600
C245        C  0.11512383  0.45741868  0.96344843     0.86300
O246        O  0.03653333  0.41977608  0.84545953    -0.65800
O247        O  0.08814238  0.34378485  0.92158646    -0.85100
C248        C  0.02667783  0.42022114  0.87338287     0.87100
C249        C  0.09604131  0.01112202  0.87468122     1.08700
H250        H  0.06281388  0.38928971  0.90677846     0.40500
O251        O  0.08845773  0.40430926  0.90467613    -1.07700
O252        O  0.15000061  0.41613944  0.87056028    -0.64400
Ni253      Ni  0.09977840  0.39877293  0.86267456     1.26300
O254        O  0.04873198  0.43594022  0.89570870    -0.64600
O255        O  0.08917990  0.35024880  0.86897439    -0.76900
C256        C  0.09640972  0.40198994  0.79635474     0.86500
O257        O  0.11018094  0.39484537  0.81960038    -0.64100
Ni258      Ni  0.10790616  0.39126796  0.93889326     1.27400
Ni259      Ni  0.09965343  0.45277258  0.90064803     1.26100
H260        H  0.13412347  0.46302474  0.85339822     0.41100
O261        O  0.07223252  0.14271741  0.79890243    -0.78900
O262        O  0.03471552  0.11838352  0.94429912    -0.63600
O263        O  0.04486825  0.14486352  0.85807307    -1.10200
C264        C  0.16070659  0.23540417  0.89304248     1.08000
O265        O  0.05511484  0.17438510  0.95959481    -0.76800
O266        O  0.08782153  0.23190135  0.92103337    -0.64400
Ni267      Ni  0.03688023  0.10910231  0.82752411     1.34900
C268        C  0.07858500  0.23598042  0.89385417     0.86700
O269        O  0.49079322  0.09246525  0.89571571    -0.77300
O270        O  0.49859184  0.07057382  0.85087534    -0.87600
C271        C  0.03533970  0.14078823  0.96377831     0.86300
O272        O  0.07149659  0.09913332  0.84536705    -0.65800
O273        O  0.14854365  0.22774766  0.92099945    -0.85100
C274        C  0.07139275  0.08905644  0.87331418     0.87100
C275        C  0.48057809  0.06780974  0.87536835     1.08700
H276        H  0.10289326  0.15630101  0.90681840     0.40500
O277        O  0.08795371  0.16700221  0.90466723    -1.07700
O278        O  0.07664453  0.21698538  0.87027401    -0.64400
Ni279      Ni  0.09335312  0.18354984  0.86255956     1.26300
O280        O  0.05600652  0.09560229  0.89578583    -0.64600
O281        O  0.14205618  0.22119217  0.86846970    -0.76900
C282        C  0.08959897  0.17661200  0.79625720     0.86500
O283        O  0.09721889  0.19762781  0.81946642    -0.64100
Ni284      Ni  0.10127762  0.19979431  0.93871285     1.27400
Ni285      Ni  0.03938096  0.12981913  0.90090174     1.26100
H286        H  0.02899900  0.15411179  0.85373296     0.41100
O287        O  0.42757891  0.07035685  0.20248697    -0.78900
O288        O  0.46660310  0.08435842  0.05740147    -0.63600
O289        O  0.45572881  0.10021265  0.14357691    -1.10200
C290        C  0.34029279  0.07519734  0.10783015     1.08000
O291        O  0.44641965  0.12010604  0.04203779    -0.76800
O292        O  0.41324807  0.14462855  0.08030164    -0.64400
Ni293      Ni  0.46311297  0.07203068  0.17408958     1.34900
C294        C  0.42270483  0.15801554  0.10743639     0.86700
O295        O  0.01001540  0.10203363  0.10632635    -0.77300
O296        O  0.00152752  0.07175012  0.15094405    -0.87600
C297        C  0.46618176  0.10626335  0.03794139     0.86300
O298        O  0.42843721  0.02768026  0.15587769    -0.65800
O299        O  0.35259934  0.07956837  0.07993350    -0.85100
C300        C  0.42898845  0.01785937  0.12796425     0.87100
C301        C  0.01989364  0.08729288  0.12666422     1.08700
H302        H  0.39806792  0.05392795  0.09454948     0.40500
O303        O  0.41304349  0.07956627  0.09672558    -1.07700
O304        O  0.42460248  0.14094596  0.13101873    -0.64400
Ni305      Ni  0.40742595  0.09073038  0.13877729     1.26300
O306        O  0.44481060  0.03995479  0.10568149    -0.64600
O307        O  0.35885811  0.07995085  0.13252800    -0.76900
C308        C  0.41069873  0.08737832  0.20511866     0.86500
O309        O  0.40341076  0.10100438  0.18185754    -0.64100
Ni310      Ni  0.40003626  0.09913992  0.06255670     1.27400
Ni311      Ni  0.46153813  0.09086795  0.10077914     1.26100
H312        H  0.47168155  0.12526530  0.14808102     0.41100
C313        C  0.49038243  0.11753503  0.01171702    -0.11300
C314        C  0.01128054  0.12795958  0.99010143    -0.12800
C315        C  0.07281036  0.26578049  0.88969248    -0.11300
C316        C  0.07501149  0.29482234  0.89004126    -0.12800
C317        C  0.09432949  0.04322730  0.87942766    -0.11300
C318        C  0.08665201  0.06658706  0.87894595    -0.12800
C319        C  0.12639754  0.48159094  0.98969289    -0.11300
C320        C  0.13681073  0.00244682  0.01133842    -0.12800
C321        C  0.05203763  0.08566912  0.12187875    -0.11300
C322        C  0.07541933  0.07802539  0.12232930    -0.12800
C323        C  0.27450407  0.06391414  0.11175259    -0.11300
C324        C  0.30353916  0.06610572  0.11145134    -0.12800
C325        C  0.01187581  0.41632789  0.12197923    -0.11300
C326        C  0.04290068  0.43970344  0.12131846    -0.12800
C327        C  0.27220147  0.18850716  0.11212231    -0.11300
C328        C  0.29920684  0.21743317  0.11250133    -0.12800
C329        C  0.41381199  0.48013837  0.12221954    -0.11300
C330        C  0.40622954  0.44911451  0.12175830    -0.12800
C331        C  0.42696282  0.22072958  0.11126508    -0.11300
C332        C  0.42886488  0.19372884  0.11155884    -0.12800
C333        C  0.22630111  0.29023872  0.88890971    -0.11300
C334        C  0.19736655  0.26324902  0.88920493    -0.12800
C335        C  0.44842081  0.03405691  0.88030472    -0.11300
C336        C  0.42505032  0.00301173  0.87970722    -0.12800
C337        C  0.22954919  0.41804187  0.89037218    -0.11300
C338        C  0.20258984  0.42001198  0.89006027    -0.12800
C339        C  0.45792494  0.39742102  0.87963060    -0.11300
C340        C  0.48894906  0.40500862  0.87911422    -0.12800
C341        C  0.36405725  0.36554271  0.98992935    -0.11300
C342        C  0.37443332  0.35526709  0.01171351    -0.12800
C343        C  0.40081107  0.09126150  0.23655085    -0.11300
C344        C  0.40077995  0.09132118  0.26492141    -0.12800
C345        C  0.09965475  0.19029376  0.76485382    -0.11300
C346        C  0.09969905  0.19033569  0.73650590    -0.12800
C347        C  0.49029797  0.11746184  0.48970350    -0.11300
C348        C  0.01117403  0.12789073  0.51133406    -0.12800
C349        C  0.10017626  0.39209893  0.73653699    -0.11300
C350        C  0.10025465  0.39211424  0.76490887    -0.12800
C351        C  0.07494601  0.29477837  0.61141773    -0.11300
C352        C  0.07275942  0.26574339  0.61171926    -0.12800
C353        C  0.09440448  0.04324966  0.62196831    -0.11300
C354        C  0.08678287  0.06664678  0.62243153    -0.12800
C355        C  0.19900555  0.09080463  0.26487261    -0.11300
C356        C  0.19904720  0.09083384  0.23652450    -0.12800
C357        C  0.12627768  0.48169526  0.51176182    -0.11300
C358        C  0.13673406  0.00263642  0.49017378    -0.12800
C359        C  0.07536944  0.07798899  0.37900456    -0.11300
C360        C  0.05198413  0.08562880  0.37947508    -0.11600
C361        C  0.27445020  0.06393756  0.38973273    -0.11300
C362        C  0.30347071  0.06609265  0.39007356    -0.12800
C363        C  0.40259709  0.29298942  0.26497245    -0.11300
C364        C  0.40256925  0.29296902  0.23662342    -0.12800
C365        C  0.40615072  0.44909110  0.37963141    -0.11300
C366        C  0.41372511  0.48010843  0.37911569    -0.12800
C367        C  0.42681610  0.22069921  0.39039295    -0.11300
C368        C  0.42871210  0.19369571  0.39007620    -0.12800
C369        C  0.01184342  0.41634226  0.37977775    -0.11300
C370        C  0.04287476  0.43973310  0.38039835    -0.12800
C371        C  0.27214681  0.18863305  0.38916206    -0.11300
C372        C  0.29914619  0.21755858  0.38888803    -0.12800
C373        C  0.30167311  0.39365745  0.76494230    -0.11300
C374        C  0.30160674  0.39362425  0.73658957    -0.12800
C375        C  0.19727501  0.26339634  0.61200284    -0.11300
C376        C  0.22617631  0.29042856  0.61236038    -0.12800
C377        C  0.42507358  0.00304911  0.62204240    -0.11300
C378        C  0.44845270  0.03407832  0.62136804    -0.12800
C379        C  0.20252283  0.42013693  0.61141490    -0.11300
C380        C  0.22952986  0.41824409  0.61110870    -0.12800
C381        C  0.45782510  0.39737592  0.62179623    -0.11300
C382        C  0.48885349  0.40497276  0.62227006    -0.12800
C383        C  0.36407352  0.36564104  0.51170910    -0.11300
C384        C  0.37437134  0.35527975  0.48993230    -0.12800
O385        O  0.31771928  0.86305919  0.54226071    -0.78900
O386        O  0.29439351  0.88400781  0.68192891    -0.63600
O387        O  0.32521215  0.90400156  0.59667411    -1.10200
C388        C  0.42407896  0.89582542  0.62666177     1.08000
O389        O  0.34924265  0.91293503  0.70276935    -0.76800
O390        O  0.39242746  0.95564022  0.65592160    -0.64400
Ni391      Ni  0.29247713  0.88427175  0.56262386     1.34900
C392        C  0.40270115  0.96536359  0.62795971     0.86700
O393        O  0.27133240  0.90500138  0.63237821    -0.77300
O394        O  0.26473456  0.90407117  0.57980195    -0.87600
C395        C  0.31535150  0.89704458  0.70522864     0.86300
O396        O  0.26017180  0.83897199  0.58066535    -0.65800
O397        O  0.42147456  0.91167564  0.65079265    -0.85100
C398        C  0.25593709  0.82600903  0.60800804     0.87100
C399        C  0.25720494  0.90916105  0.60761714     1.08700
H400        H  0.33751789  0.85820561  0.64832698     0.40500
O401        O  0.34697263  0.88330378  0.64373203    -1.07700
O402        O  0.39649263  0.94320540  0.60574736    -0.64400
Ni403      Ni  0.36213399  0.89233607  0.60091085     1.26300
O404        O  0.27482473  0.84336902  0.63153639    -0.64600
O405        O  0.39924253  0.88084968  0.60654653    -0.76900
C406        C  0.35130534  0.87684244  0.53807589     0.86500
O407        O  0.37373554  0.89864127  0.55753525    -0.64100
Ni408      Ni  0.38286225  0.91132429  0.67411332     1.27400
Ni409      Ni  0.30860530  0.89353719  0.63879824     1.26100
H410        H  0.33606312  0.92962791  0.59422552     0.41100
O411        O  0.37171283  0.80892911  0.45932769    -0.78900
O412        O  0.39294199  0.78578482  0.31960717    -0.63600
O413        O  0.41269588  0.81647637  0.40489653    -1.10200
C414        C  0.40466900  0.91537495  0.37482811     1.08000
O415        O  0.42196981  0.84064174  0.29879367    -0.76800
O416        O  0.46454915  0.88357290  0.34583707    -0.64400
Ni417      Ni  0.39283357  0.78364355  0.43889021     1.34900
C418        C  0.47417235  0.89393132  0.37379459     0.86700
O419        O  0.41379467  0.76265747  0.36914342    -0.77300
O420        O  0.41253908  0.75582473  0.42169487    -0.87600
C421        C  0.40603294  0.80674968  0.29632182     0.86300
O422        O  0.34753695  0.75150107  0.42075326    -0.65800
O423        O  0.42076691  0.91285747  0.35083665    -0.85100
C424        C  0.33470453  0.74729947  0.39336061     0.87100
C425        C  0.41776941  0.74839630  0.39389252     1.08700
H426        H  0.36709962  0.82888947  0.35307597     0.40500
O427        O  0.39216178  0.83831229  0.35776400    -1.07700
O428        O  0.45191601  0.88779581  0.39591111    -0.64400
Ni429      Ni  0.40101993  0.85339397  0.40060271     1.26300
O430        O  0.35218561  0.76617642  0.36987026    -0.64600
O431        O  0.38951086  0.89047435  0.39486902    -0.76900
C432        C  0.38547785  0.84251445  0.46349887     0.86500
O433        O  0.40717651  0.86496062  0.44398708    -0.64100
Ni434      Ni  0.42038525  0.87424969  0.32748482     1.27400
Ni435      Ni  0.40236910  0.79994485  0.36273551     1.26100
H436        H  0.43831525  0.82733052  0.40741064     0.41100
O437        O  0.18317817  0.54648654  0.45968100    -0.78900
O438        O  0.20637739  0.58843411  0.31948853    -0.63600
O439        O  0.17580995  0.57929961  0.40470466    -1.10200
C440        C  0.07659963  0.97191170  0.37546796     1.08000
O441        O  0.15145423  0.56352805  0.29896260    -0.76800
O442        O  0.10790499  0.56282357  0.34543252    -0.64400
Ni443      Ni  0.20862369  0.59261557  0.43873905     1.34900
C444        C  0.09784320  0.56273688  0.37337993     0.86700
O445        O  0.23001901  0.63333344  0.36845283    -0.77300
O446        O  0.23662426  0.63984855  0.42097733    -0.87600
C447        C  0.18534656  0.58081941  0.29628955     0.86300
O448        O  0.24065387  0.57905648  0.42106764    -0.65800
O449        O  0.07934082  0.98991557  0.35097269    -0.85100
C450        C  0.24470109  0.56978896  0.39389249     0.87100
C451        C  0.24427146  0.65199009  0.39301387     1.08700
H452        H  0.16284773  0.52027748  0.35380622     0.40500
O453        O  0.15361950  0.53617405  0.35814067    -1.07700
O454        O  0.10439753  0.54736240  0.39585638    -0.64400
Ni455      Ni  0.13860822  0.53073126  0.40097470     1.26300
O456        O  0.22572289  0.56788334  0.37031087    -0.64600
O457        O  0.10125368  0.98214717  0.39581885    -0.76900
C458        C  0.14957957  0.52671569  0.46385861     0.86500
O459        O  0.12718416  0.52610182  0.44437380    -0.64100
Ni460      Ni  0.11785191  0.52819035  0.32760023     1.27400
Ni461      Ni  0.19233260  0.58464109  0.36258627     1.26100
H462        H  0.16512648  0.59425466  0.40684703     0.41100
O463        O  0.12880011  0.93765224  0.54201464    -0.78900
O464        O  0.10989617  0.89468868  0.68183188    -0.63600
O465        O  0.08831064  0.90425469  0.59672153    -1.10200
C466        C  0.09601523  0.51109284  0.62671675     1.08000
O467        O  0.07911365  0.91870773  0.70245876    -0.76800
O468        O  0.03642131  0.91964728  0.65591646    -0.64400
Ni469      Ni  0.10784845  0.89125730  0.56252324     1.34900
C470        C  0.02658098  0.92017158  0.62800411     0.86700
O471        O  0.08881774  0.85010675  0.63249902    -0.77300
O472        O  0.08829482  0.84381725  0.57989927    -0.87600
C473        C  0.09623408  0.90192794  0.70509652     0.86300
O474        O  0.15335695  0.90445735  0.58022198    -0.65800
O475        O  0.08052802  0.99273771  0.65101671    -0.85100
C476        C  0.16679527  0.91395975  0.60733569     0.87100
C477        C  0.08400712  0.83152741  0.60779890     1.08700
H478        H  0.13401252  0.96290981  0.64804935     0.40500
O479        O  0.10896830  0.94694104  0.64356450    -1.07700
O480        O  0.04865844  0.93597473  0.60570692    -0.64400
Ni481      Ni  0.09957413  0.95273898  0.60077772     1.26300
O482        O  0.14976581  0.91589172  0.63093407    -0.64600
O483        O  0.11069906  0.00120301  0.60633358    -0.76900
C484        C  0.11496523  0.95742718  0.53794566     0.86500
O485        O  0.09303503  0.95780218  0.55740307    -0.64100
Ni486      Ni  0.08079884  0.95428958  0.67411350     1.27400
Ni487      Ni  0.09954748  0.89866160  0.63875714     1.26100
H488        H  0.06266965  0.88926094  0.59457498     0.41100
O489        O  0.05493192  0.67432927  0.54187799    -0.78900
O490        O  0.09724998  0.69767839  0.68188306    -0.63600
O491        O  0.08792935  0.66698675  0.59670304    -1.10200
C492        C  0.48065600  0.56779658  0.62618807     1.08000
O493        O  0.07243633  0.64277794  0.70246061    -0.76800
O494        O  0.07169629  0.59923196  0.65600413    -0.64400
Ni495      Ni  0.10116962  0.69974044  0.56263487     1.34900
C496        C  0.07152607  0.58911226  0.62806582     0.86700
O497        O  0.14200514  0.72132070  0.63279041    -0.77300
O498        O  0.14848863  0.72767451  0.58024237    -0.87600
C499        C  0.08970009  0.67667052  0.70509825     0.86300
O500        O  0.08783835  0.73192775  0.58035710    -0.65800
O501        O  0.49875637  0.57056391  0.65061871    -0.85100
C502        C  0.07852815  0.73594604  0.60752617     0.87100
C503        C  0.16064580  0.73546545  0.60819277     1.08700
H504        H  0.02902325  0.65403470  0.64772152     0.40500
O505        O  0.04492416  0.64483187  0.64335273    -1.07700
O506        O  0.05605156  0.59558849  0.60562211    -0.64400
Ni507      Ni  0.03937984  0.62977591  0.60053314     1.26300
O508        O  0.07649950  0.71688139  0.63108098    -0.64600
O509        O  0.49081752  0.59241573  0.60580568    -0.76900
C510        C  0.03521540  0.64072968  0.53766891     0.86500
O511        O  0.03464362  0.61832967  0.55713279    -0.64100
Ni512      Ni  0.03705809  0.60912040  0.67390767     1.27400
Ni513      Ni  0.09335905  0.68357648  0.63879219     1.26100
H514        H  0.10288849  0.65630882  0.59454666     0.41100
O515        O  0.44637843  0.62007442  0.45934800    -0.78900
O516        O  0.40343190  0.60118333  0.31961882    -0.63600
O517        O  0.41296628  0.57953631  0.40471229    -1.10200
C518        C  0.01984595  0.58727414  0.37471964     1.08000
O519        O  0.42744387  0.57037856  0.29901798    -0.76800
O520        O  0.42850259  0.52769341  0.34546387    -0.64400
Ni521      Ni  0.39993773  0.59900643  0.43892665     1.34900
C522        C  0.42894160  0.51783329  0.37338625     0.86700
O523        O  0.35885053  0.58013534  0.36899244    -0.77300
O524        O  0.35246751  0.57931556  0.42160237    -0.87600
C525        C  0.41065029  0.58748029  0.29636860     0.86300
O526        O  0.41295813  0.64447400  0.42122208    -0.65800
O527        O  0.00156162  0.57189957  0.35036494    -0.85100
C528        C  0.42257546  0.65798286  0.39413997     0.87100
C529        C  0.34022145  0.57516444  0.39369672     1.08700
H530        H  0.47165579  0.62527613  0.35342723     0.40500
O531        O  0.45567648  0.60021946  0.35788877    -1.07700
O532        O  0.44466391  0.53988141  0.39571288    -0.64400
Ni533      Ni  0.46144558  0.59078698  0.40067134     1.26300
O534        O  0.42467290  0.64103480  0.37055653    -0.64600
O535        O  0.00990773  0.60187785  0.39514128    -0.76900
C536        C  0.46609570  0.60618567  0.46348106     0.86500
O537        O  0.46646221  0.58422640  0.44405224    -0.64100
Ni538      Ni  0.46307871  0.57212462  0.32730650     1.27400
Ni539      Ni  0.40739701  0.59082017  0.36269872     1.26100
H540        H  0.39796745  0.55389272  0.40683461     0.41100
O541        O  0.34935534  0.91304122  0.79875398    -0.78900
O542        O  0.37372240  0.89834512  0.94398048    -0.63600
O543        O  0.34707314  0.88328253  0.85775094    -1.10200
C544        C  0.25718112  0.90891076  0.89387021     1.08000
O545        O  0.31769262  0.86282589  0.95929941    -0.76800
O546        O  0.26024478  0.83865165  0.92074628    -0.64400
Ni547      Ni  0.38299377  0.91151932  0.82746373     1.34900
C548        C  0.25604452  0.82580230  0.89336214     0.86700
O549        O  0.39928788  0.88071960  0.89487095    -0.77300
O550        O  0.42163220  0.91196237  0.85082560    -0.87600
C551        C  0.35128048  0.87662633  0.96348612     0.86300
O552        O  0.39227302  0.95567834  0.84579931    -0.65800
O553        O  0.26460100  0.90367140  0.92167404    -0.85100
C554        C  0.40264747  0.96532729  0.87375066     0.87100
C555        C  0.42418255  0.89589349  0.87482639     1.08700
H556        H  0.33605695  0.92942389  0.90737724     0.40500
O557        O  0.32522110  0.90380670  0.90487181    -1.07700
O558        O  0.27492354  0.84327208  0.86986699    -0.64400
Ni559      Ni  0.30868495  0.89346075  0.86271435     1.26300
O560        O  0.39653349  0.94308685  0.89588056    -0.64600
O561        O  0.27140434  0.90489022  0.86911911    -0.76900
C562        C  0.31546004  0.89710200  0.79629103     0.86500
O563        O  0.29450974  0.88401671  0.81958623    -0.64100
Ni564      Ni  0.29240298  0.88394866  0.93887097     1.27400
Ni565      Ni  0.36216671  0.89217535  0.90059073     1.26100
H566        H  0.33766068  0.85820882  0.85307085     0.41100
O567        O  0.42189439  0.84059773  0.20277866    -0.78900
O568        O  0.40743967  0.86495268  0.05754152    -0.63600
O569        O  0.39215113  0.83827643  0.14376284    -1.10200
C570        C  0.41788922  0.74840717  0.10774854     1.08000
O571        O  0.37185720  0.80892951  0.04228416    -0.76800
O572        O  0.34769687  0.75144556  0.08076672    -0.64400
Ni573      Ni  0.42021298  0.87418662  0.17412077     1.34900
C574        C  0.33477697  0.74720955  0.10812501     0.86700
O575        O  0.38970922  0.89052954  0.10653415    -0.77300
O576        O  0.42051671  0.91277379  0.15079151    -0.87600
C577        C  0.38564079  0.84251328  0.03808855     0.86300
O578        O  0.46451005  0.88375600  0.15589769    -0.65800
O579        O  0.41273349  0.75587026  0.07993000    -0.85100
C580        C  0.47420214  0.89397615  0.12792210     0.87100
C581        C  0.40468047  0.91537170  0.12664460     1.08700
H582        H  0.43841537  0.82727828  0.09425244     0.40500
O583        O  0.41279094  0.81644314  0.09671712    -1.07700
O584        O  0.35217777  0.76609218  0.13164315    -0.64400
Ni585      Ni  0.40235851  0.79989161  0.13886027     1.26300
O586        O  0.45202753  0.88773314  0.10571801    -0.64600
O587        O  0.41381467  0.76261256  0.13249177    -0.76900
C588        C  0.40596260  0.80670713  0.20526710     0.86500
O589        O  0.39285520  0.78573206  0.18199267    -0.64100
Ni590      Ni  0.39300791  0.78365998  0.06270369     1.27400
Ni591      Ni  0.40115618  0.85339106  0.10092572     1.26100
H592        H  0.36707070  0.82884122  0.14836761     0.41100
O593        O  0.15152647  0.56378180  0.20240586    -0.78900
O594        O  0.12719553  0.52592103  0.05710807    -0.63600
O595        O  0.15358743  0.53614645  0.14335222    -1.10200
C596        C  0.24429600  0.65186815  0.10827647     1.08000
O597        O  0.18321319  0.54620779  0.04191607    -0.76800
O598        O  0.24078719  0.57914006  0.08041421    -0.64400
Ni599      Ni  0.11788246  0.52832147  0.17389055     1.34900
C600        C  0.24472857  0.56971222  0.10755859     0.86700
O601        O  0.10121170  0.98208942  0.10576614    -0.77300
O602        O  0.07936320  0.98996793  0.15061366    -0.87600
C603        C  0.14961873  0.52648618  0.03767665     0.86300
O604        O  0.10793883  0.56290269  0.15594346    -0.65800
O605        O  0.23647560  0.63976056  0.08031171    -0.85100
C606        C  0.09787054  0.56275722  0.12799140     0.87100
C607        C  0.07660311  0.97190272  0.12615917     1.08700
H608        H  0.16515001  0.59415468  0.09459024     0.40500
O609        O  0.17581398  0.57918109  0.09673047    -1.07700
O610        O  0.22560698  0.56759422  0.13109430    -0.64400
Ni611      Ni  0.19238276  0.58454431  0.13882310     1.26300
O612        O  0.10439699  0.54731466  0.10555687    -0.64600
O613        O  0.23019072  0.63317389  0.13285790    -0.76900
C614        C  0.18541629  0.58088739  0.20510109     0.86500
O615        O  0.20644703  0.58834379  0.18191699    -0.64100
Ni616      Ni  0.20858542  0.59244605  0.06267979     1.27400
Ni617      Ni  0.13858424  0.53063724  0.10052096     1.26100
H618        H  0.16275156  0.52021218  0.14773159     0.41100
O619        O  0.07922291  0.91869894  0.79901371    -0.78900
O620        O  0.09313225  0.95777570  0.94404415    -0.63600
O621        O  0.10908748  0.94702104  0.85786220    -1.10200
C622        C  0.08409859  0.83157794  0.89367416     1.08000
O623        O  0.12903904  0.93773128  0.95927363    -0.76800
O624        O  0.15334529  0.90419359  0.92118092    -0.64400
Ni625      Ni  0.08095170  0.95435320  0.82727641     1.34900
C626        C  0.16689752  0.91391519  0.89412508     0.86700
O627        O  0.11066310  0.00121350  0.89511715    -0.77300
O628        O  0.08070802  0.99283754  0.85031446    -0.87600
C629        C  0.11512378  0.95741868  0.96344842     0.86300
O630        O  0.03653337  0.91977604  0.84545954    -0.65800
O631        O  0.08814240  0.84378488  0.92158646    -0.85100
C632        C  0.02667780  0.92022110  0.87338286     0.87100
C633        C  0.09604129  0.51112201  0.87468122     1.08700
H634        H  0.06281388  0.88928975  0.90677844     0.40500
O635        O  0.08845770  0.90430928  0.90467611    -1.07700
O636        O  0.15000058  0.91613933  0.87056029    -0.64400
Ni637      Ni  0.09977842  0.89877298  0.86267455     1.26300
O638        O  0.04873193  0.93594024  0.89570869    -0.64600
O639        O  0.08917991  0.85024882  0.86897439    -0.76900
C640        C  0.09640975  0.90198997  0.79635474     0.86500
O641        O  0.11018096  0.89484540  0.81960038    -0.64100
Ni642      Ni  0.10790615  0.89126798  0.93889325     1.27400
Ni643      Ni  0.09965342  0.95277260  0.90064802     1.26100
H644        H  0.13412403  0.96302508  0.85339819     0.41100
O645        O  0.07223250  0.64271737  0.79890247    -0.78900
O646        O  0.03471542  0.61838352  0.94429912    -0.63600
O647        O  0.04486829  0.64486352  0.85807309    -1.10200
C648        C  0.16070659  0.73540420  0.89304250     1.08000
O649        O  0.05511481  0.67438514  0.95959484    -0.76800
O650        O  0.08782147  0.73190134  0.92103341    -0.64400
Ni651      Ni  0.03688019  0.60910232  0.82752412     1.34900
C652        C  0.07858494  0.73598040  0.89385419     0.86700
O653        O  0.49079327  0.59246518  0.89571573    -0.77300
O654        O  0.49859190  0.57057382  0.85087533    -0.87600
C655        C  0.03533970  0.64078825  0.96377834     0.86300
O656        O  0.07149657  0.59913333  0.84536704    -0.65800
O657        O  0.14854368  0.72774757  0.92099948    -0.85100
C658        C  0.07139282  0.58905649  0.87331417     0.87100
C659        C  0.48057816  0.56780970  0.87536835     1.08700
H660        H  0.10289312  0.65630116  0.90681843     0.40500
O661        O  0.08795368  0.66700224  0.90466728    -1.07700
O662        O  0.07664458  0.71698541  0.87027401    -0.64400
Ni663      Ni  0.09335315  0.68354987  0.86255959     1.26300
O664        O  0.05600657  0.59560231  0.89578585    -0.64600
O665        O  0.14205615  0.72119228  0.86846972    -0.76900
C666        C  0.08959888  0.67661194  0.79625720     0.86500
O667        O  0.09721892  0.69762780  0.81946641    -0.64100
Ni668      Ni  0.10127761  0.69979432  0.93871292     1.27400
Ni669      Ni  0.03938092  0.62981910  0.90090176     1.26100
H670        H  0.02899932  0.65411174  0.85373303     0.41100
O671        O  0.42757898  0.57035690  0.20248697    -0.78900
O672        O  0.46660306  0.58435843  0.05740147    -0.63600
O673        O  0.45572892  0.60021274  0.14357691    -1.10200
C674        C  0.34029276  0.57519741  0.10783015     1.08000
O675        O  0.44641964  0.62010607  0.04203779    -0.76800
O676        O  0.41324810  0.64462851  0.08030167    -0.64400
Ni677      Ni  0.46311306  0.57203074  0.17408958     1.34900
C678        C  0.42270491  0.65801554  0.10743639     0.86700
O679        O  0.01001541  0.60203367  0.10632636    -0.77300
O680        O  0.00152757  0.57175016  0.15094405    -0.87600
C681        C  0.46618172  0.60626336  0.03794138     0.86300
O682        O  0.42843730  0.52768030  0.15587769    -0.65800
O683        O  0.35259931  0.57956843  0.07993350    -0.85100
C684        C  0.42898851  0.51785939  0.12796425     0.87100
C685        C  0.01989365  0.58729287  0.12666421     1.08700
H686        H  0.39806744  0.55392715  0.09454947     0.40500
O687        O  0.41304343  0.57956613  0.09672559    -1.07700
O688        O  0.42460258  0.64094598  0.13101873    -0.64400
Ni689      Ni  0.40742601  0.59073039  0.13877729     1.26300
O690        O  0.44481070  0.53995481  0.10568149    -0.64600
O691        O  0.35885811  0.57995087  0.13252799    -0.76900
C692        C  0.41069878  0.58737835  0.20511865     0.86500
O693        O  0.40341085  0.60100445  0.18185753    -0.64100
Ni694      Ni  0.40003624  0.59913990  0.06255671     1.27400
Ni695      Ni  0.46153814  0.59086795  0.10077914     1.26100
H696        H  0.47168204  0.62526596  0.14808111     0.41100
C697        C  0.49038235  0.61753496  0.01171697    -0.11300
C698        C  0.01128059  0.62795958  0.99010147    -0.12800
C699        C  0.07281024  0.76578044  0.88969247    -0.11300
C700        C  0.07501149  0.79482234  0.89004126    -0.12800
C701        C  0.09432954  0.54322733  0.87942763    -0.11300
C702        C  0.08665211  0.56658714  0.87894593    -0.12800
C703        C  0.12639744  0.98159094  0.98969288    -0.11300
C704        C  0.13681082  0.50244680  0.01133843    -0.12800
C705        C  0.05203758  0.58566897  0.12187872    -0.11300
C706        C  0.07541928  0.57802524  0.12232931    -0.12800
C707        C  0.27450399  0.56391420  0.11175260    -0.11300
C708        C  0.30353910  0.56610580  0.11145137    -0.12800
C709        C  0.01187574  0.91632794  0.12197921    -0.11300
C710        C  0.04290064  0.93970339  0.12131843    -0.12800
C711        C  0.27220150  0.68850718  0.11212230    -0.11300
C712        C  0.29920687  0.71743319  0.11250130    -0.12800
C713        C  0.41381199  0.98013837  0.12221955    -0.11300
C714        C  0.40622952  0.94911452  0.12175833    -0.12800
C715        C  0.42696290  0.72072959  0.11126509    -0.11300
C716        C  0.42886498  0.69372885  0.11155881    -0.12800
C717        C  0.22630116  0.79023873  0.88890971    -0.11300
C718        C  0.19736657  0.76324904  0.88920494    -0.12800
C719        C  0.44842088  0.53405688  0.88030471    -0.11300
C720        C  0.42505036  0.50301171  0.87970723    -0.12800
C721        C  0.22954910  0.91804171  0.89037217    -0.11300
C722        C  0.20258982  0.92001195  0.89006028    -0.12800
C723        C  0.45792502  0.89742110  0.87963056    -0.11300
C724        C  0.48894911  0.90500861  0.87911420    -0.12800
C725        C  0.36405725  0.86554259  0.98992934    -0.11300
C726        C  0.37443340  0.85526709  0.01171351    -0.12800
C727        C  0.40081113  0.59126155  0.23655084    -0.11300
C728        C  0.40077997  0.59132126  0.26492140    -0.12800
C729        C  0.09965460  0.69029365  0.76485380    -0.11300
C730        C  0.09969908  0.69033567  0.73650588    -0.12800
C731        C  0.49029787  0.61746166  0.48970352    -0.11300
C732        C  0.01117395  0.62789062  0.51133410    -0.12800
C733        C  0.10017635  0.89209900  0.73653699    -0.11300
C734        C  0.10025472  0.89211428  0.76490887    -0.12800
C735        C  0.07494612  0.79477843  0.61141774    -0.11300
C736        C  0.07275948  0.76574343  0.61171924    -0.12800
C737        C  0.09440442  0.54324957  0.62196830    -0.11300
C738        C  0.08678270  0.56664661  0.62243157    -0.12800
C739        C  0.19900548  0.59080449  0.26487260    -0.11300
C740        C  0.19904719  0.59083368  0.23652449    -0.12800
C741        C  0.12627758  0.98169528  0.51176183    -0.11300
C742        C  0.13673411  0.50263642  0.49017378    -0.12800
C743        C  0.07536949  0.57798901  0.37900454    -0.11300
C744        C  0.05198417  0.58562879  0.37947509    -0.11600
C745        C  0.27445025  0.56393753  0.38973272    -0.11300
C746        C  0.30347069  0.56609248  0.39007355    -0.12800
C747        C  0.40259712  0.79298941  0.26497245    -0.11300
C748        C  0.40256920  0.79296902  0.23662342    -0.12800
C749        C  0.40615052  0.94909101  0.37963140    -0.11300
C750        C  0.41372502  0.98010839  0.37911572    -0.12800
C751        C  0.42681607  0.72069916  0.39039294    -0.11300
C752        C  0.42871203  0.69369564  0.39007620    -0.12800
C753        C  0.01184343  0.91634227  0.37977777    -0.11300
C754        C  0.04287476  0.93973309  0.38039837    -0.12800
C755        C  0.27214688  0.68863301  0.38916205    -0.11300
C756        C  0.29914624  0.71755853  0.38888802    -0.12800
C757        C  0.30167312  0.89365750  0.76494229    -0.11300
C758        C  0.30160666  0.89362431  0.73658956    -0.12800
C759        C  0.19727503  0.76339637  0.61200294    -0.11300
C760        C  0.22617629  0.79042865  0.61236043    -0.12800
C761        C  0.42507354  0.50304913  0.62204240    -0.11300
C762        C  0.44845269  0.53407833  0.62136804    -0.12800
C763        C  0.20252284  0.92013692  0.61141494    -0.11300
C764        C  0.22952982  0.91824398  0.61110871    -0.12800
C765        C  0.45782515  0.89737596  0.62179621    -0.11300
C766        C  0.48885354  0.90497280  0.62227004    -0.12800
C767        C  0.36407343  0.86564106  0.51170906    -0.11300
C768        C  0.37437137  0.85527980  0.48993233    -0.12800
O769        O  0.81771929  0.36305917  0.54226073    -0.78900
O770        O  0.79439348  0.38400776  0.68192892    -0.63600
O771        O  0.82521213  0.40400152  0.59667411    -1.10200
C772        C  0.92407893  0.39582538  0.62666172     1.08000
O773        O  0.84924263  0.41293498  0.70276935    -0.76800
O774        O  0.89242746  0.45564022  0.65592161    -0.64400
Ni775      Ni  0.79247711  0.38427171  0.56262386     1.34900
C776        C  0.90270113  0.46536360  0.62795972     0.86700
O777        O  0.77133238  0.40500134  0.63237821    -0.77300
O778        O  0.76473453  0.40407113  0.57980195    -0.87600
C779        C  0.81535148  0.39704453  0.70522864     0.86300
O780        O  0.76017178  0.33897195  0.58066535    -0.65800
O781        O  0.92147456  0.41167558  0.65079263    -0.85100
C782        C  0.75593707  0.32600899  0.60800803     0.87100
C783        C  0.75720495  0.40916106  0.60761714     1.08700
H784        H  0.83751787  0.35820556  0.64832697     0.40500
O785        O  0.84697260  0.38330373  0.64373203    -1.07700
O786        O  0.89649262  0.44320540  0.60574737    -0.64400
Ni787      Ni  0.86213397  0.39233606  0.60091084     1.26300
O788        O  0.77482470  0.34336897  0.63153639    -0.64600
O789        O  0.89924248  0.38084963  0.60654650    -0.76900
C790        C  0.85130535  0.37684245  0.53807589     0.86500
O791        O  0.87373554  0.39864134  0.55753523    -0.64100
Ni792      Ni  0.88286223  0.41132425  0.67411331     1.27400
Ni793      Ni  0.80860527  0.39353714  0.63879824     1.26100
H794        H  0.83606309  0.42962787  0.59422553     0.41100
O795        O  0.87171282  0.30892908  0.45932768    -0.78900
O796        O  0.89294204  0.28578492  0.31960717    -0.63600
O797        O  0.91269586  0.31647637  0.40489654    -1.10200
C798        C  0.90466905  0.41537501  0.37482811     1.08000
O799        O  0.92196985  0.34064181  0.29879364    -0.76800
O800        O  0.96454915  0.38357288  0.34583708    -0.64400
Ni801      Ni  0.89283356  0.28364353  0.43889021     1.34900
C802        C  0.97417237  0.39393129  0.37379459     0.86700
O803        O  0.91379464  0.26265745  0.36914341    -0.77300
O804        O  0.91253906  0.25582471  0.42169487    -0.87600
C805        C  0.90603298  0.30674975  0.29632181     0.86300
O806        O  0.84753694  0.25150108  0.42075325    -0.65800
O807        O  0.92076692  0.41285749  0.35083664    -0.85100
C808        C  0.83470453  0.24729950  0.39336060     0.87100
C809        C  0.91776941  0.24839630  0.39389251     1.08700
H810        H  0.86709991  0.32888970  0.35307603     0.40500
O811        O  0.89216185  0.33831236  0.35776401    -1.07700
O812        O  0.95191605  0.38779584  0.39591113    -0.64400
Ni813      Ni  0.90101997  0.35339403  0.40060273     1.26300
O814        O  0.85218562  0.26617644  0.36987025    -0.64600
O815        O  0.88951090  0.39047443  0.39486904    -0.76900
C816        C  0.88547783  0.34251442  0.46349887     0.86500
O817        O  0.90717650  0.36496062  0.44398710    -0.64100
Ni818      Ni  0.92038528  0.37424973  0.32748481     1.27400
Ni819      Ni  0.90236911  0.29994488  0.36273552     1.26100
H820        H  0.93831524  0.32733048  0.40741064     0.41100
O821        O  0.68317817  0.04648650  0.45968100    -0.78900
O822        O  0.70637742  0.08843421  0.31948853    -0.63600
O823        O  0.67580997  0.07929955  0.40470465    -1.10200
C824        C  0.57659965  0.47191172  0.37546795     1.08000
O825        O  0.65145426  0.06352801  0.29896258    -0.76800
O826        O  0.60790498  0.06282354  0.34543252    -0.64400
Ni827      Ni  0.70862369  0.09261555  0.43873905     1.34900
C828        C  0.59784324  0.06273689  0.37337994     0.86700
O829        O  0.73001901  0.13333343  0.36845285    -0.77300
O830        O  0.73662424  0.13984854  0.42097734    -0.87600
C831        C  0.68534658  0.08081947  0.29628954     0.86300
O832        O  0.74065395  0.07905660  0.42106762    -0.65800
O833        O  0.57934087  0.48991565  0.35097271    -0.85100
C834        C  0.74470110  0.06978897  0.39389249     0.87100
C835        C  0.74427145  0.15199009  0.39301388     1.08700
H836        H  0.66284776  0.02027747  0.35380617     0.40500
O837        O  0.65361953  0.03617402  0.35814065    -1.07700
O838        O  0.60439759  0.04736240  0.39585638    -0.64400
Ni839      Ni  0.63860825  0.03073122  0.40097469     1.26300
O840        O  0.72572285  0.06788328  0.37031088    -0.64600
O841        O  0.60125368  0.48214717  0.39581885    -0.76900
C842        C  0.64957957  0.02671566  0.46385861     0.86500
O843        O  0.62718418  0.02610178  0.44437378    -0.64100
Ni844      Ni  0.61785192  0.02819032  0.32760021     1.27400
Ni845      Ni  0.69233261  0.08464108  0.36258628     1.26100
H846        H  0.66512646  0.09425458  0.40684704     0.41100
O847        O  0.62880009  0.43765220  0.54201464    -0.78900
O848        O  0.60989615  0.39468863  0.68183188    -0.63600
O849        O  0.58831061  0.40425463  0.59672152    -1.10200
C850        C  0.59601526  0.01109292  0.62671675     1.08000
O851        O  0.57911363  0.41870769  0.70245876    -0.76800
O852        O  0.53642128  0.41964723  0.65591646    -0.64400
Ni853      Ni  0.60784842  0.39125726  0.56252324     1.34900
C854        C  0.52658095  0.42017153  0.62800411     0.86700
O855        O  0.58881772  0.35010670  0.63249902    -0.77300
O856        O  0.58829480  0.34381720  0.57989927    -0.87600
C857        C  0.59623406  0.40192789  0.70509652     0.86300
O858        O  0.65335693  0.40445731  0.58022198    -0.65800
O859        O  0.58052799  0.49273764  0.65101671    -0.85100
C860        C  0.66679525  0.41395970  0.60733569     0.87100
C861        C  0.58400710  0.33152737  0.60779890     1.08700
H862        H  0.63401249  0.46290976  0.64804935     0.40500
O863        O  0.60896828  0.44694098  0.64356450    -1.07700
O864        O  0.54865841  0.43597469  0.60570692    -0.64400
Ni865      Ni  0.59957411  0.45273892  0.60077772     1.26300
O866        O  0.64976578  0.41589167  0.63093407    -0.64600
O867        O  0.61069907  0.50120295  0.60633361    -0.76900
C868        C  0.61496520  0.45742714  0.53794565     0.86500
O869        O  0.59303501  0.45780214  0.55740307    -0.64100
Ni870      Ni  0.58079881  0.45428952  0.67411350     1.27400
Ni871      Ni  0.59954746  0.39866155  0.63875714     1.26100
H872        H  0.56266962  0.38926088  0.59457498     0.41100
O873        O  0.55493198  0.17432936  0.54187799    -0.78900
O874        O  0.59724996  0.19767836  0.68188305    -0.63600
O875        O  0.58792936  0.16698677  0.59670302    -1.10200
C876        C  0.98065600  0.06779660  0.62618809     1.08000
O877        O  0.57243634  0.14277795  0.70246062    -0.76800
O878        O  0.57169627  0.09923197  0.65600414    -0.64400
Ni879      Ni  0.60116965  0.19974051  0.56263487     1.34900
C880        C  0.57152607  0.08911228  0.62806582     0.86700
O881        O  0.64200514  0.22132066  0.63279042    -0.77300
O882        O  0.64848864  0.22767453  0.58024238    -0.87600
C883        C  0.58970003  0.17667051  0.70509826     0.86300
O884        O  0.58783832  0.23192776  0.58035710    -0.65800
O885        O  0.99875639  0.07056397  0.65061873    -0.85100
C886        C  0.57852815  0.23594605  0.60752618     0.87100
C887        C  0.66064580  0.23546542  0.60819278     1.08700
H888        H  0.52902325  0.15403472  0.64772149     0.40500
O889        O  0.54492416  0.14483189  0.64335270    -1.07700
O890        O  0.55605155  0.09558847  0.60562211    -0.64400
Ni891      Ni  0.53937985  0.12977592  0.60053313     1.26300
O892        O  0.57649958  0.21688146  0.63108100    -0.64600
O893        O  0.99081754  0.09241571  0.60580566    -0.76900
C894        C  0.53521544  0.14072977  0.53766890     0.86500
O895        O  0.53464365  0.11832973  0.55713277    -0.64100
Ni896      Ni  0.53705810  0.10912045  0.67390767     1.27400
Ni897      Ni  0.59335905  0.18357647  0.63879218     1.26100
H898        H  0.60288850  0.15630883  0.59454662     0.41100
O899        O  0.94637842  0.12007443  0.45934801    -0.78900
O900        O  0.90343186  0.10118327  0.31961882    -0.63600
O901        O  0.91296634  0.07953643  0.40471229    -1.10200
C902        C  0.51984601  0.08727422  0.37471963     1.08000
O903        O  0.92744385  0.07037851  0.29901798    -0.76800
O904        O  0.92850258  0.02769338  0.34546388    -0.64400
Ni905      Ni  0.89993773  0.09900644  0.43892666     1.34900
C906        C  0.92894160  0.01783327  0.37338626     0.86700
O907        O  0.85885055  0.08013536  0.36899244    -0.77300
O908        O  0.85246752  0.07931556  0.42160237    -0.87600
C909        C  0.91065027  0.08748024  0.29636860     0.86300
O910        O  0.91295813  0.14447401  0.42122209    -0.65800
O911        O  0.50156163  0.07189955  0.35036499    -0.85100
C912        C  0.92257547  0.15798288  0.39413997     0.87100
C913        C  0.84022148  0.07516454  0.39369672     1.08700
H914        H  0.97165577  0.12527610  0.35342721     0.40500
O915        O  0.95567646  0.10021944  0.35788876    -1.07700
O916        O  0.94466393  0.03988144  0.39571287    -0.64400
Ni917      Ni  0.96144561  0.09078705  0.40067132     1.26300
O918        O  0.92467290  0.14103482  0.37055652    -0.64600
O919        O  0.50990781  0.10187796  0.39514125    -0.76900
C920        C  0.96609577  0.10618576  0.46348105     0.86500
O921        O  0.96646223  0.08422644  0.44405225    -0.64100
Ni922      Ni  0.96307869  0.07212458  0.32730650     1.27400
Ni923      Ni  0.90739702  0.09082020  0.36269872     1.26100
H924        H  0.89796787  0.05389345  0.40683457     0.41100
O925        O  0.84935532  0.41304127  0.79875405    -0.78900
O926        O  0.87372245  0.39834521  0.94398046    -0.63600
O927        O  0.84707321  0.38328266  0.85775094    -1.10200
C928        C  0.75718118  0.40891085  0.89387026     1.08000
O929        O  0.81769268  0.36282598  0.95929943    -0.76800
O930        O  0.76024477  0.33865161  0.92074629    -0.64400
Ni931      Ni  0.88299382  0.41151941  0.82746375     1.34900
C932        C  0.75604450  0.32580227  0.89336215     0.86700
O933        O  0.89928786  0.38071958  0.89487094    -0.77300
O934        O  0.92163222  0.41196238  0.85082561    -0.87600
C935        C  0.85128055  0.37662644  0.96348612     0.86300
O936        O  0.89227302  0.45567839  0.84579933    -0.65800
O937        O  0.76460099  0.40367140  0.92167407    -0.85100
C938        C  0.90264746  0.46532730  0.87375068     0.87100
C939        C  0.92418252  0.39589345  0.87482638     1.08700
H940        H  0.83605693  0.42942387  0.90737725     0.40500
O941        O  0.82522108  0.40380668  0.90487181    -1.07700
O942        O  0.77492354  0.34327204  0.86986699    -0.64400
Ni943      Ni  0.80868493  0.39346076  0.86271437     1.26300
O944        O  0.89653349  0.44308684  0.89588056    -0.64600
O945        O  0.77140431  0.40489021  0.86911915    -0.76900
C946        C  0.81546002  0.39710196  0.79629107     0.86500
O947        O  0.79450969  0.38401665  0.81958625    -0.64100
Ni948      Ni  0.79240297  0.38394865  0.93887098     1.27400
Ni949      Ni  0.86216672  0.39217539  0.90059073     1.26100
H950        H  0.83766102  0.35820956  0.85307090     0.41100
O951        O  0.92189440  0.34059774  0.20277867    -0.78900
O952        O  0.90743965  0.36495264  0.05754151    -0.63600
O953        O  0.89215111  0.33827640  0.14376284    -1.10200
C954        C  0.91788925  0.24840718  0.10774855     1.08000
O955        O  0.87185717  0.30892947  0.04228415    -0.76800
O956        O  0.84769685  0.25144552  0.08076672    -0.64400
Ni957      Ni  0.92021297  0.37418660  0.17412077     1.34900
C958        C  0.83477695  0.24720951  0.10812501     0.86700
O959        O  0.88970919  0.39052951  0.10653415    -0.77300
O960        O  0.92051668  0.41277376  0.15079150    -0.87600
C961        C  0.88564076  0.34251325  0.03808854     0.86300
O962        O  0.96451002  0.38375594  0.15589768    -0.65800
O963        O  0.91273349  0.25587025  0.07993000    -0.85100
C964        C  0.97420213  0.39397613  0.12792210     0.87100
C965        C  0.90468044  0.41537167  0.12664459     1.08700
H966        H  0.93841537  0.32727828  0.09425244     0.40500
O967        O  0.91279093  0.31644312  0.09671712    -1.07700
O968        O  0.85217775  0.26609213  0.13164316    -0.64400
Ni969      Ni  0.90235850  0.29989159  0.13886027     1.26300
O970        O  0.95202752  0.38773321  0.10571802    -0.64600
O971        O  0.91381467  0.26261255  0.13249177    -0.76900
C972        C  0.90596261  0.30670714  0.20526711     0.86500
O973        O  0.89285520  0.28573207  0.18199268    -0.64100
Ni974      Ni  0.89300789  0.28365994  0.06270369     1.27400
Ni975      Ni  0.90115617  0.35339104  0.10092572     1.26100
H976        H  0.86707069  0.32884118  0.14836761     0.41100
O977        O  0.65152648  0.06378175  0.20240588    -0.78900
O978        O  0.62719552  0.02592101  0.05710807    -0.63600
O979        O  0.65358741  0.03614642  0.14335223    -1.10200
C980        C  0.74429598  0.15186810  0.10827647     1.08000
O981        O  0.68321318  0.04620777  0.04191607    -0.76800
O982        O  0.74078716  0.07914001  0.08041421    -0.64400
Ni983      Ni  0.61788244  0.02832141  0.17389055     1.34900
C984        C  0.74472854  0.06971217  0.10755860     0.86700
O985        O  0.60121172  0.48208949  0.10576614    -0.77300
O986        O  0.57936326  0.48996802  0.15061366    -0.87600
C987        C  0.64961873  0.02648621  0.03767662     0.86300
O988        O  0.60793880  0.06290264  0.15594347    -0.65800
O989        O  0.73647558  0.13976052  0.08031171    -0.85100
C990        C  0.59787053  0.06275722  0.12799140     0.87100
C991        C  0.57660314  0.47190279  0.12615918     1.08700
H992        H  0.66514997  0.09415462  0.09459024     0.40500
O993        O  0.67581395  0.07918104  0.09673047    -1.07700
O994        O  0.72560696  0.06759418  0.13109430    -0.64400
Ni995      Ni  0.69238275  0.08454429  0.13882309     1.26300
O996        O  0.60439694  0.04731460  0.10555688    -0.64600
O997        O  0.73019070  0.13317385  0.13285789    -0.76900
C998        C  0.68541632  0.08088745  0.20510109     0.86500
O999        O  0.70644705  0.08834389  0.18191699    -0.64100
Ni1000     Ni  0.70858540  0.09244602  0.06267980     1.27400
Ni1001     Ni  0.63858423  0.03063719  0.10052098     1.26100
H1002       H  0.66275155  0.02021215  0.14773160     0.41100
O1003       O  0.57922287  0.41869887  0.79901371    -0.78900
O1004       O  0.59313239  0.45777582  0.94404406    -0.63600
O1005       O  0.60908749  0.44702100  0.85786214    -1.10200
C1006       C  0.58409860  0.33157794  0.89367416     1.08000
O1007       O  0.62903900  0.43773123  0.95927365    -0.76800
O1008       O  0.65334532  0.40419368  0.92118092    -0.64400
Ni1009     Ni  0.58095171  0.45435316  0.82727638     1.34900
C1010       C  0.66689755  0.41391525  0.89412507     0.86700
O1011       O  0.61066314  0.50121351  0.89511713    -0.77300
O1012       O  0.58070811  0.49283756  0.85031442    -0.87600
C1013       C  0.61512379  0.45741867  0.96344841     0.86300
O1014       O  0.53653337  0.41977605  0.84545953    -0.65800
O1015       O  0.58814241  0.34378487  0.92158646    -0.85100
C1016       C  0.52667783  0.42022115  0.87338285     0.87100
C1017       C  0.59604127  0.01112199  0.87468122     1.08700
H1018       H  0.56281389  0.38928977  0.90677841     0.40500
O1019       O  0.58845773  0.40430928  0.90467608    -1.07700
O1020       O  0.65000061  0.41613942  0.87056029    -0.64400
Ni1021     Ni  0.59977843  0.39877295  0.86267453     1.26300
O1022       O  0.54873199  0.43594025  0.89570867    -0.64600
O1023       O  0.58917992  0.35024881  0.86897439    -0.76900
C1024       C  0.59640972  0.40198991  0.79635474     0.86500
O1025       O  0.61018094  0.39484535  0.81960038    -0.64100
Ni1026     Ni  0.60790614  0.39126797  0.93889325     1.27400
Ni1027     Ni  0.59965349  0.45277261  0.90064796     1.26100
H1028       H  0.63412402  0.46302501  0.85339809     0.41100
O1029       O  0.57223251  0.14271740  0.79890244    -0.78900
O1030       O  0.53471542  0.11838351  0.94429910    -0.63600
O1031       O  0.54486829  0.14486352  0.85807308    -1.10200
C1032       C  0.66070659  0.23540420  0.89304248     1.08000
O1033       O  0.55511482  0.17438511  0.95959479    -0.76800
O1034       O  0.58782144  0.23190132  0.92103338    -0.64400
Ni1035     Ni  0.53688020  0.10910231  0.82752412     1.34900
C1036       C  0.57858491  0.23598037  0.89385417     0.86700
O1037       O  0.99079330  0.09246524  0.89571572    -0.77300
O1038       O  0.99859192  0.07057381  0.85087534    -0.87600
C1039       C  0.53533971  0.14078824  0.96377831     0.86300
O1040       O  0.57149656  0.09913329  0.84536704    -0.65800
O1041       O  0.64854367  0.22774765  0.92099945    -0.85100
C1042       C  0.57139279  0.08905646  0.87331418     0.87100
C1043       C  0.98057817  0.06780973  0.87536835     1.08700
H1044       H  0.60289325  0.15630097  0.90681842     0.40500
O1045       O  0.58795371  0.16700219  0.90466724    -1.07700
O1046       O  0.57664455  0.21698538  0.87027400    -0.64400
Ni1047     Ni  0.59335316  0.18354985  0.86255958     1.26300
O1048       O  0.55600654  0.09560230  0.89578584    -0.64600
O1049       O  0.64205615  0.22119223  0.86846971    -0.76900
C1050       C  0.58959890  0.17661199  0.79625720     0.86500
O1051       O  0.59721892  0.19762781  0.81946643    -0.64100
Ni1052     Ni  0.60127761  0.19979431  0.93871285     1.27400
Ni1053     Ni  0.53938093  0.12981912  0.90090174     1.26100
H1054       H  0.52899932  0.15411174  0.85373301     0.41100
O1055       O  0.92757896  0.07035685  0.20248698    -0.78900
O1056       O  0.96660304  0.08435841  0.05740146    -0.63600
O1057       O  0.95572886  0.10021265  0.14357691    -1.10200
C1058       C  0.84029274  0.07519736  0.10783015     1.08000
O1059       O  0.94641960  0.12010604  0.04203779    -0.76800
O1060       O  0.91324814  0.14462855  0.08030164    -0.64400
Ni1061     Ni  0.96311302  0.07203068  0.17408958     1.34900
C1062       C  0.92270491  0.15801554  0.10743639     0.86700
O1063       O  0.51001540  0.10203362  0.10632636    -0.77300
O1064       O  0.50152752  0.07175012  0.15094406    -0.87600
C1065       C  0.96618171  0.10626336  0.03794139     0.86300
O1066       O  0.92843728  0.02768026  0.15587770    -0.65800
O1067       O  0.85259929  0.07956840  0.07993350    -0.85100
C1068       C  0.92898848  0.01785937  0.12796425     0.87100
C1069       C  0.51989365  0.08729287  0.12666423     1.08700
H1070       H  0.89806784  0.05392788  0.09454951     0.40500
O1071       O  0.91304349  0.07956625  0.09672559    -1.07700
O1072       O  0.92460256  0.14094596  0.13101873    -0.64400
Ni1073     Ni  0.90742598  0.09073037  0.13877729     1.26300
O1074       O  0.94481065  0.03995478  0.10568148    -0.64600
O1075       O  0.85885809  0.07995083  0.13252799    -0.76900
C1076       C  0.91069876  0.08737830  0.20511865     0.86500
O1077       O  0.90341081  0.10100438  0.18185753    -0.64100
Ni1078     Ni  0.90003624  0.09913992  0.06255671     1.27400
Ni1079     Ni  0.96153813  0.09086793  0.10077913     1.26100
H1080       H  0.97168162  0.12526530  0.14808101     0.41100
C1081       C  0.99038236  0.11753504  0.01171699    -0.11300
C1082       C  0.51128062  0.12795959  0.99010147    -0.12800
C1083       C  0.57281025  0.26578043  0.88969246    -0.11300
C1084       C  0.57501152  0.29482235  0.89004125    -0.12800
C1085       C  0.59432951  0.04322730  0.87942764    -0.11300
C1086       C  0.58665208  0.06658710  0.87894594    -0.12800
C1087       C  0.62639741  0.48159091  0.98969289    -0.11300
C1088       C  0.63681081  0.00244682  0.01133842    -0.12800
C1089       C  0.55203767  0.08566911  0.12187876    -0.11300
C1090       C  0.57541938  0.07802539  0.12232931    -0.12800
C1091       C  0.77450396  0.06391415  0.11175260    -0.11300
C1092       C  0.80353908  0.06610575  0.11145137    -0.12800
C1093       C  0.51187578  0.41632793  0.12197924    -0.11300
C1094       C  0.54290068  0.43970341  0.12131847    -0.12800
C1095       C  0.77220148  0.18850713  0.11212230    -0.11300
C1096       C  0.79920685  0.21743314  0.11250130    -0.12800
C1097       C  0.91381183  0.48013835  0.12221954    -0.11300
C1098       C  0.90622945  0.44911450  0.12175833    -0.12800
C1099       C  0.92696290  0.22072959  0.11126509    -0.11300
C1100       C  0.92886497  0.19372885  0.11155884    -0.12800
C1101       C  0.72630116  0.29023869  0.88890970    -0.11300
C1102       C  0.69736657  0.26324901  0.88920491    -0.12800
C1103       C  0.94842090  0.03405690  0.88030472    -0.11300
C1104       C  0.92505040  0.00301173  0.87970721    -0.12800
C1105       C  0.72954920  0.41804186  0.89037221    -0.11300
C1106       C  0.70258985  0.42001198  0.89006028    -0.12800
C1107       C  0.95792498  0.39742105  0.87963057    -0.11300
C1108       C  0.98894908  0.40500862  0.87911424    -0.12800
C1109       C  0.86405733  0.36554271  0.98992935    -0.11300
C1110       C  0.87443340  0.35526709  0.01171351    -0.12800
C1111       C  0.90081110  0.09126150  0.23655084    -0.11300
C1112       C  0.90077995  0.09132121  0.26492140    -0.12800
C1113       C  0.59965459  0.19029375  0.76485382    -0.11300
C1114       C  0.59969895  0.19033569  0.73650590    -0.12800
C1115       C  0.99029799  0.11746185  0.48970348    -0.11300
C1116       C  0.51117398  0.12789076  0.51133410    -0.12800
C1117       C  0.60017633  0.39209895  0.73653699    -0.11300
C1118       C  0.60025470  0.39211424  0.76490887    -0.12800
C1119       C  0.57494609  0.29477841  0.61141774    -0.11300
C1120       C  0.57275945  0.26574341  0.61171923    -0.12800
C1121       C  0.59440451  0.04324969  0.62196831    -0.11300
C1122       C  0.58678280  0.06664674  0.62243157    -0.12800
C1123       C  0.69900553  0.09080465  0.26487261    -0.11300
C1124       C  0.69904724  0.09083384  0.23652449    -0.12800
C1125       C  0.62627757  0.48169527  0.51176182    -0.11300
C1126       C  0.63673409  0.00263640  0.49017377    -0.12800
C1127       C  0.57536950  0.07798900  0.37900455    -0.11300
C1128       C  0.55198419  0.08562880  0.37947509    -0.11600
C1129       C  0.77445025  0.06393755  0.38973273    -0.11300
C1130       C  0.80347075  0.06609264  0.39007355    -0.12800
C1131       C  0.90259712  0.29298942  0.26497246    -0.11300
C1132       C  0.90256919  0.29296902  0.23662343    -0.12800
C1133       C  0.90615058  0.44909107  0.37963139    -0.11300
C1134       C  0.91372500  0.48010841  0.37911569    -0.12800
C1135       C  0.92681614  0.22069922  0.39039293    -0.11300
C1136       C  0.92871206  0.19369568  0.39007620    -0.12800
C1137       C  0.51184344  0.41634223  0.37977774    -0.11300
C1138       C  0.54287477  0.43973309  0.38039833    -0.12800
C1139       C  0.77214687  0.18863303  0.38916206    -0.11300
C1140       C  0.79914624  0.21755856  0.38888802    -0.12800
C1141       C  0.80167314  0.39365747  0.76494231    -0.11300
C1142       C  0.80160665  0.39362426  0.73658957    -0.12800
C1143       C  0.69727502  0.26339632  0.61200296    -0.11300
C1144       C  0.72617627  0.29042861  0.61236043    -0.12800
C1145       C  0.92507353  0.00304912  0.62204241    -0.11300
C1146       C  0.94845269  0.03407832  0.62136806    -0.12800
C1147       C  0.70252285  0.42013693  0.61141494    -0.11300
C1148       C  0.72952989  0.41824409  0.61110871    -0.12800
C1149       C  0.95782511  0.39737592  0.62179610    -0.11300
C1150       C  0.98885347  0.40497272  0.62227000    -0.12800
C1151       C  0.86407343  0.36564103  0.51170908    -0.11300
C1152       C  0.87437134  0.35527975  0.48993234    -0.12800
O1153       O  0.81771936  0.86305920  0.54226072    -0.78900
O1154       O  0.79439356  0.88400781  0.68192892    -0.63600
O1155       O  0.82521216  0.90400155  0.59667410    -1.10200
C1156       C  0.92407897  0.89582542  0.62666179     1.08000
O1157       O  0.84924269  0.91293504  0.70276936    -0.76800
O1158       O  0.89242736  0.95564022  0.65592160    -0.64400
Ni1159     Ni  0.79247719  0.88427174  0.56262385     1.34900
C1160       C  0.90270109  0.96536360  0.62795972     0.86700
O1161       O  0.77133245  0.90500141  0.63237821    -0.77300
O1162       O  0.76473461  0.90407117  0.57980195    -0.87600
C1163       C  0.81535155  0.89704457  0.70522865     0.86300
O1164       O  0.76017188  0.83897197  0.58066534    -0.65800
O1165       O  0.92147455  0.91167564  0.65079266    -0.85100
C1166       C  0.75593711  0.82600901  0.60800803     0.87100
C1167       C  0.75720498  0.90916106  0.60761714     1.08700
H1168       H  0.83751781  0.85820559  0.64832699     0.40500
O1169       O  0.84697260  0.88330375  0.64373203    -1.07700
O1170       O  0.89649258  0.94320542  0.60574736    -0.64400
Ni1171     Ni  0.86213400  0.89233607  0.60091085     1.26300
O1172       O  0.77482465  0.84336903  0.63153642    -0.64600
O1173       O  0.89924256  0.88084969  0.60654653    -0.76900
C1174       C  0.85130541  0.87684245  0.53807590     0.86500
O1175       O  0.87373561  0.89864127  0.55753526    -0.64100
Ni1176     Ni  0.88286222  0.91132429  0.67411331     1.27400
Ni1177     Ni  0.80860531  0.89353719  0.63879824     1.26100
H1178       H  0.83606308  0.92962790  0.59422554     0.41100
O1179       O  0.87171290  0.80892911  0.45932770    -0.78900
O1180       O  0.89294202  0.78578482  0.31960718    -0.63600
O1181       O  0.91269588  0.81647638  0.40489652    -1.10200
C1182       C  0.90466904  0.91537496  0.37482812     1.08000
O1183       O  0.92196970  0.84064173  0.29879365    -0.76800
O1184       O  0.96454917  0.88357289  0.34583707    -0.64400
Ni1185     Ni  0.89283364  0.78364357  0.43889021     1.34900
C1186       C  0.97417237  0.89393132  0.37379459     0.86700
O1187       O  0.91379457  0.76265742  0.36914343    -0.77300
O1188       O  0.91253914  0.75582476  0.42169488    -0.87600
C1189       C  0.90603284  0.80674967  0.29632182     0.86300
O1190       O  0.84753703  0.75150106  0.42075325    -0.65800
O1191       O  0.92076687  0.91285745  0.35083662    -0.85100
C1192       C  0.83470457  0.74729947  0.39336061     0.87100
C1193       C  0.91776934  0.74839626  0.39389251     1.08700
H1194       H  0.86709957  0.82888947  0.35307593     0.40500
O1195       O  0.89216175  0.83831229  0.35776399    -1.07700
O1196       O  0.95191601  0.88779581  0.39591111    -0.64400
Ni1197     Ni  0.90101992  0.85339397  0.40060272     1.26300
O1198       O  0.85218560  0.76617647  0.36987026    -0.64600
O1199       O  0.88951089  0.89047438  0.39486905    -0.76900
C1200       C  0.88547788  0.84251445  0.46349886     0.86500
O1201       O  0.90717655  0.86496062  0.44398709    -0.64100
Ni1202     Ni  0.92038525  0.87424969  0.32748482     1.27400
Ni1203     Ni  0.90236908  0.79994486  0.36273551     1.26100
H1204       H  0.93831527  0.82733055  0.40741062     0.41100
O1205       O  0.68317821  0.54648651  0.45968102    -0.78900
O1206       O  0.70637742  0.58843410  0.31948856    -0.63600
O1207       O  0.67580986  0.57929965  0.40470468    -1.10200
C1208       C  0.57659966  0.97191170  0.37546796     1.08000
O1209       O  0.65145430  0.56352804  0.29896259    -0.76800
O1210       O  0.60790502  0.56282356  0.34543252    -0.64400
Ni1211     Ni  0.70862368  0.59261556  0.43873905     1.34900
C1212       C  0.59784318  0.56273685  0.37337993     0.86700
O1213       O  0.73001892  0.63333345  0.36845283    -0.77300
O1214       O  0.73662421  0.63984855  0.42097733    -0.87600
C1215       C  0.68534662  0.58081940  0.29628955     0.86300
O1216       O  0.74065386  0.57905648  0.42106761    -0.65800
O1217       O  0.57934089  0.98991557  0.35097268    -0.85100
C1218       C  0.74470107  0.56978897  0.39389247     0.87100
C1219       C  0.74427143  0.65199008  0.39301387     1.08700
H1220       H  0.66284751  0.52027782  0.35380630     0.40500
O1221       O  0.65361945  0.53617410  0.35814069    -1.07700
O1222       O  0.60439746  0.54736235  0.39585639    -0.64400
Ni1223     Ni  0.63860819  0.53073131  0.40097471     1.26300
O1224       O  0.72572281  0.56788333  0.37031088    -0.64600
O1225       O  0.60125371  0.98214714  0.39581885    -0.76900
C1226       C  0.64957960  0.52671569  0.46385861     0.86500
O1227       O  0.62718422  0.52610182  0.44437380    -0.64100
Ni1228     Ni  0.61785193  0.52819036  0.32760021     1.27400
Ni1229     Ni  0.69233253  0.58464114  0.36258629     1.26100
H1230       H  0.66512613  0.59425494  0.40684713     0.41100
O1231       O  0.62880014  0.93765222  0.54201465    -0.78900
O1232       O  0.60989625  0.89468870  0.68183187    -0.63600
O1233       O  0.58831052  0.90425465  0.59672154    -1.10200
C1234       C  0.59601520  0.51109281  0.62671674     1.08000
O1235       O  0.57911371  0.91870775  0.70245876    -0.76800
O1236       O  0.53642130  0.91964723  0.65591645    -0.64400
Ni1237     Ni  0.60784833  0.89125728  0.56252324     1.34900
C1238       C  0.52658100  0.92017156  0.62800409     0.86700
O1239       O  0.58881782  0.85010677  0.63249902    -0.77300
O1240       O  0.58829463  0.84381722  0.57989926    -0.87600
C1241       C  0.59623415  0.90192795  0.70509652     0.86300
O1242       O  0.65335684  0.90445734  0.58022200    -0.65800
O1243       O  0.58052791  0.99273768  0.65101666    -0.85100
C1244       C  0.66679523  0.91395975  0.60733568     0.87100
C1245       C  0.58400702  0.83152739  0.60779889     1.08700
H1246       H  0.63401194  0.96290953  0.64804932     0.40500
O1247       O  0.60896821  0.94694100  0.64356451    -1.07700
O1248       O  0.54865848  0.93597476  0.60570692    -0.64400
Ni1249     Ni  0.59957411  0.95273895  0.60077773     1.26300
O1250       O  0.64976582  0.91589175  0.63093408    -0.64600
O1251       O  0.61069914  0.00120304  0.60633363    -0.76900
C1252       C  0.61496530  0.95742720  0.53794567     0.86500
O1253       O  0.59303511  0.95780221  0.55740307    -0.64100
Ni1254     Ni  0.58079876  0.95428957  0.67411350     1.27400
Ni1255     Ni  0.59954745  0.89866157  0.63875714     1.26100
H1256       H  0.56266904  0.88926064  0.59457499     0.41100
O1257       O  0.55493180  0.67432926  0.54187803    -0.78900
O1258       O  0.59725006  0.69767840  0.68188305    -0.63600
O1259       O  0.58792935  0.66698671  0.59670303    -1.10200
C1260       C  0.98065599  0.56779659  0.62618806     1.08000
O1261       O  0.57243624  0.64277795  0.70246064    -0.76800
O1262       O  0.57169638  0.59923203  0.65600412    -0.64400
Ni1263     Ni  0.60116952  0.69974043  0.56263487     1.34900
C1264       C  0.57152609  0.58911230  0.62806581     0.86700
O1265       O  0.64200512  0.72132073  0.63279039    -0.77300
O1266       O  0.64848850  0.72767450  0.58024233    -0.87600
C1267       C  0.58970008  0.67667053  0.70509826     0.86300
O1268       O  0.58783835  0.73192779  0.58035711    -0.65800
O1269       O  0.99875630  0.57056395  0.65061874    -0.85100
C1270       C  0.57852817  0.73594607  0.60752619     0.87100
C1271       C  0.66064571  0.73546549  0.60819271     1.08700
H1272       H  0.52902283  0.65403492  0.64772166     0.40500
O1273       O  0.54492410  0.64483190  0.64335275    -1.07700
O1274       O  0.55605149  0.59558847  0.60562215    -0.64400
Ni1275     Ni  0.53937982  0.62977592  0.60053314     1.26300
O1276       O  0.57649955  0.71688142  0.63108098    -0.64600
O1277       O  0.99081753  0.59241574  0.60580568    -0.76900
C1278       C  0.53521541  0.64072967  0.53766888     0.86500
O1279       O  0.53464367  0.61832968  0.55713278    -0.64100
Ni1280     Ni  0.53705810  0.60912039  0.67390766     1.27400
Ni1281     Ni  0.59335904  0.68357647  0.63879219     1.26100
H1282       H  0.60288881  0.65630855  0.59454657     0.41100
O1283       O  0.94637850  0.62007444  0.45934797    -0.78900
O1284       O  0.90343200  0.60118334  0.31961881    -0.63600
O1285       O  0.91296625  0.57953629  0.40471228    -1.10200
C1286       C  0.51984596  0.58727413  0.37471963     1.08000
O1287       O  0.92744382  0.57037843  0.29901797    -0.76800
O1288       O  0.92850254  0.52769343  0.34546390    -0.64400
Ni1289     Ni  0.89993776  0.59900643  0.43892665     1.34900
C1290       C  0.92894159  0.51783329  0.37338625     0.86700
O1291       O  0.85885055  0.58013537  0.36899243    -0.77300
O1292       O  0.85246755  0.57931553  0.42160237    -0.87600
C1293       C  0.91065031  0.58748024  0.29636859     0.86300
O1294       O  0.91295801  0.64447398  0.42122207    -0.65800
O1295       O  0.50156159  0.57189958  0.35036495    -0.85100
C1296       C  0.92257541  0.65798286  0.39413996     0.87100
C1297       C  0.84022147  0.57516444  0.39369673     1.08700
H1298       H  0.97165590  0.62527621  0.35342722     0.40500
O1299       O  0.95567649  0.60021945  0.35788876    -1.07700
O1300       O  0.94466395  0.53988142  0.39571287    -0.64400
Ni1301     Ni  0.96144555  0.59078697  0.40067133     1.26300
O1302       O  0.92467296  0.64103482  0.37055656    -0.64600
O1303       O  0.50990778  0.60187785  0.39514129    -0.76900
C1304       C  0.96609575  0.60618567  0.46348105     0.86500
O1305       O  0.96646222  0.58422638  0.44405222    -0.64100
Ni1306     Ni  0.96307871  0.57212458  0.32730649     1.27400
Ni1307     Ni  0.90739704  0.59082019  0.36269871     1.26100
H1308       H  0.89796739  0.55389270  0.40683459     0.41100
O1309       O  0.84935531  0.91304125  0.79875409    -0.78900
O1310       O  0.87372241  0.89834509  0.94398047    -0.63600
O1311       O  0.84707318  0.88328253  0.85775094    -1.10200
C1312       C  0.75718112  0.90891076  0.89387020     1.08000
O1313       O  0.81769261  0.86282595  0.95929944    -0.76800
O1314       O  0.76024477  0.83865165  0.92074628    -0.64400
Ni1315     Ni  0.88299378  0.91151934  0.82746375     1.34900
C1316       C  0.75604448  0.82580231  0.89336213     0.86700
O1317       O  0.89928785  0.88071960  0.89487094    -0.77300
O1318       O  0.92163223  0.91196238  0.85082559    -0.87600
C1319       C  0.85128048  0.87662633  0.96348611     0.86300
O1320       O  0.89227294  0.95567832  0.84579935    -0.65800
O1321       O  0.76460091  0.90367137  0.92167404    -0.85100
C1322       C  0.90264750  0.96532729  0.87375066     0.87100
C1323       C  0.92418252  0.89589348  0.87482639     1.08700
H1324       H  0.83605694  0.92942390  0.90737723     0.40500
O1325       O  0.82522110  0.90380670  0.90487181    -1.07700
O1326       O  0.77492355  0.84327206  0.86986699    -0.64400
Ni1327     Ni  0.80868496  0.89346074  0.86271436     1.26300
O1328       O  0.89653356  0.94308684  0.89588055    -0.64600
O1329       O  0.77140438  0.90489024  0.86911913    -0.76900
C1330       C  0.81546002  0.89710199  0.79629108     0.86500
O1331       O  0.79450968  0.88401669  0.81958625    -0.64100
Ni1332     Ni  0.79240293  0.88394867  0.93887098     1.27400
Ni1333     Ni  0.86216672  0.89217536  0.90059073     1.26100
H1334       H  0.83766075  0.85820882  0.85307085     0.41100
O1335       O  0.92189424  0.84059772  0.20277869    -0.78900
O1336       O  0.90743972  0.86495267  0.05754151    -0.63600
O1337       O  0.89215109  0.83827640  0.14376282    -1.10200
C1338       C  0.91788925  0.74840719  0.10774854     1.08000
O1339       O  0.87185714  0.80892951  0.04228420    -0.76800
O1340       O  0.84769683  0.75144560  0.08076671    -0.64400
Ni1341     Ni  0.92021290  0.87418661  0.17412077     1.34900
C1342       C  0.83477697  0.74720956  0.10812501     0.86700
O1343       O  0.88970927  0.89052955  0.10653414    -0.77300
O1344       O  0.92051675  0.91277381  0.15079150    -0.87600
C1345       C  0.88564076  0.84251328  0.03808858     0.86300
O1346       O  0.96450998  0.88375596  0.15589770    -0.65800
O1347       O  0.91273342  0.75587022  0.07993001    -0.85100
C1348       C  0.97420208  0.89397616  0.12792212     0.87100
C1349       C  0.90468053  0.91537172  0.12664458     1.08700
H1350       H  0.93841543  0.82727829  0.09425243     0.40500
O1351       O  0.91279100  0.81644315  0.09671712    -1.07700
O1352       O  0.85217782  0.76609213  0.13164316    -0.64400
Ni1353     Ni  0.90235856  0.79989162  0.13886027     1.26300
O1354       O  0.95202749  0.88773317  0.10571804    -0.64600
O1355       O  0.91381478  0.76261261  0.13249178    -0.76900
C1356       C  0.90596263  0.80670713  0.20526710     0.86500
O1357       O  0.89285529  0.78573206  0.18199267    -0.64100
Ni1358     Ni  0.89300788  0.78365997  0.06270370     1.27400
Ni1359     Ni  0.90115620  0.85339105  0.10092571     1.26100
H1360       H  0.86707063  0.82884117  0.14836755     0.41100
O1361       O  0.65152651  0.56378179  0.20240586    -0.78900
O1362       O  0.62719541  0.52592105  0.05710809    -0.63600
O1363       O  0.65358746  0.53614644  0.14335220    -1.10200
C1364       C  0.74429603  0.65186814  0.10827647     1.08000
O1365       O  0.68321307  0.54620777  0.04191606    -0.76800
O1366       O  0.74078724  0.57914003  0.08041419    -0.64400
Ni1367     Ni  0.61788247  0.52832147  0.17389053     1.34900
C1368       C  0.74472864  0.56971222  0.10755859     0.86700
O1369       O  0.60121180  0.98208941  0.10576615    -0.77300
O1370       O  0.57936328  0.98996793  0.15061365    -0.87600
C1371       C  0.64961860  0.52648619  0.03767664     0.86300
O1372       O  0.60793877  0.56290266  0.15594349    -0.65800
O1373       O  0.73647570  0.63976053  0.08031171    -0.85100
C1374       C  0.59787051  0.56275723  0.12799142     0.87100
C1375       C  0.57660319  0.97190272  0.12615917     1.08700
H1376       H  0.66515033  0.59415442  0.09459029     0.40500
O1377       O  0.67581404  0.57918106  0.09673047    -1.07700
O1378       O  0.72560707  0.56759425  0.13109430    -0.64400
Ni1379     Ni  0.69238280  0.58454428  0.13882309     1.26300
O1380       O  0.60439700  0.54731471  0.10555689    -0.64600
O1381       O  0.73019067  0.63317391  0.13285789    -0.76900
C1382       C  0.68541633  0.58088742  0.20510109     0.86500
O1383       O  0.70644707  0.58834379  0.18191699    -0.64100
Ni1384     Ni  0.70858545  0.59244603  0.06267979     1.27400
Ni1385     Ni  0.63858422  0.53063722  0.10052097     1.26100
H1386       H  0.66275159  0.52021216  0.14773154     0.41100
O1387       O  0.57922300  0.91869894  0.79901371    -0.78900
O1388       O  0.59313229  0.95777573  0.94404414    -0.63600
O1389       O  0.60908755  0.94702105  0.85786220    -1.10200
C1390       C  0.58409859  0.83157793  0.89367416     1.08000
O1391       O  0.62903903  0.93773124  0.95927365    -0.76800
O1392       O  0.65334533  0.90419359  0.92118092    -0.64400
Ni1393     Ni  0.58095178  0.95435320  0.82727640     1.34900
C1394       C  0.66689757  0.91391519  0.89412508     0.86700
O1395       O  0.61066303  0.00121347  0.89511718    -0.77300
O1396       O  0.58070806  0.99283755  0.85031443    -0.87600
C1397       C  0.61512381  0.95741868  0.96344842     0.86300
O1398       O  0.53653346  0.91977604  0.84545954    -0.65800
O1399       O  0.58814244  0.84378487  0.92158646    -0.85100
C1400       C  0.52667788  0.92022110  0.87338286     0.87100
C1401       C  0.59604132  0.51112201  0.87468121     1.08700
H1402       H  0.56281386  0.88928974  0.90677844     0.40500
O1403       O  0.58845771  0.90430927  0.90467611    -1.07700
O1404       O  0.65000062  0.91613933  0.87056030    -0.64400
Ni1405     Ni  0.59977847  0.89877297  0.86267455     1.26300
O1406       O  0.54873199  0.93594024  0.89570869    -0.64600
O1407       O  0.58917994  0.85024881  0.86897439    -0.76900
C1408       C  0.59640984  0.90198997  0.79635475     0.86500
O1409       O  0.61018105  0.89484541  0.81960039    -0.64100
Ni1410     Ni  0.60790618  0.89126797  0.93889325     1.27400
Ni1411     Ni  0.59965345  0.95277260  0.90064803     1.26100
H1412       H  0.63412410  0.96302508  0.85339819     0.41100
O1413       O  0.57223257  0.64271737  0.79890247    -0.78900
O1414       O  0.53471551  0.61838352  0.94429913    -0.63600
O1415       O  0.54486821  0.64486355  0.85807308    -1.10200
C1416       C  0.66070654  0.73540417  0.89304251     1.08000
O1417       O  0.55511480  0.67438512  0.95959484    -0.76800
O1418       O  0.58782148  0.73190135  0.92103341    -0.64400
Ni1419     Ni  0.53688022  0.60910233  0.82752412     1.34900
C1420       C  0.57858500  0.73598043  0.89385418     0.86700
O1421       O  0.99079326  0.59246517  0.89571574    -0.77300
O1422       O  0.99859181  0.57057384  0.85087530    -0.87600
C1423       C  0.53533975  0.64078823  0.96377835     0.86300
O1424       O  0.57149657  0.59913334  0.84536705    -0.65800
O1425       O  0.64854360  0.72774759  0.92099948    -0.85100
C1426       C  0.57139281  0.58905649  0.87331418     0.87100
C1427       C  0.98057811  0.56780970  0.87536835     1.08700
H1428       H  0.60289317  0.65630121  0.90681841     0.40500
O1429       O  0.58795368  0.66700224  0.90466727    -1.07700
O1430       O  0.57664462  0.71698544  0.87027400    -0.64400
Ni1431     Ni  0.59335310  0.68354986  0.86255958     1.26300
O1432       O  0.55600660  0.59560234  0.89578585    -0.64600
O1433       O  0.64205613  0.72119220  0.86846972    -0.76900
C1434       C  0.58959896  0.67661194  0.79625720     0.86500
O1435       O  0.59721894  0.69762779  0.81946641    -0.64100
Ni1436     Ni  0.60127757  0.69979432  0.93871291     1.27400
Ni1437     Ni  0.53938092  0.62981911  0.90090175     1.26100
H1438       H  0.52899883  0.65411191  0.85373296     0.41100
O1439       O  0.92757904  0.57035693  0.20248700    -0.78900
O1440       O  0.96660304  0.58435842  0.05740148    -0.63600
O1441       O  0.95572890  0.60021275  0.14357692    -1.10200
C1442       C  0.84029281  0.57519739  0.10783014     1.08000
O1443       O  0.94641969  0.62010610  0.04203781    -0.76800
O1444       O  0.91324800  0.64462849  0.08030166    -0.64400
Ni1445     Ni  0.96311310  0.57203076  0.17408958     1.34900
C1446       C  0.92270476  0.65801551  0.10743639     0.86700
O1447       O  0.51001545  0.60203367  0.10632636    -0.77300
O1448       O  0.50152757  0.57175017  0.15094407    -0.87600
C1449       C  0.96618172  0.60626334  0.03794138     0.86300
O1450       O  0.92843735  0.52768029  0.15587772    -0.65800
O1451       O  0.85259936  0.57956840  0.07993349    -0.85100
C1452       C  0.92898841  0.51785938  0.12796425     0.87100
C1453       C  0.51989366  0.58729288  0.12666422     1.08700
H1454       H  0.89806741  0.55392717  0.09454946     0.40500
O1455       O  0.91304341  0.57956614  0.09672559    -1.07700
O1456       O  0.92460246  0.64094596  0.13101873    -0.64400
Ni1457     Ni  0.90742599  0.59073040  0.13877730     1.26300
O1458       O  0.94481056  0.53995480  0.10568148    -0.64600
O1459       O  0.85885812  0.57995086  0.13252800    -0.76900
C1460       C  0.91069880  0.58737835  0.20511866     0.86500
O1461       O  0.90341087  0.60100445  0.18185754    -0.64100
Ni1462     Ni  0.90003627  0.59913991  0.06255671     1.27400
Ni1463     Ni  0.96153810  0.59086795  0.10077914     1.26100
H1464       H  0.97168210  0.62526606  0.14808111     0.41100
C1465       C  0.99038235  0.61753494  0.01171698    -0.11300
C1466       C  0.51128062  0.62795955  0.99010148    -0.12800
C1467       C  0.57281033  0.76578047  0.88969246    -0.11300
C1468       C  0.57501152  0.79482234  0.89004126    -0.12800
C1469       C  0.59432945  0.54322727  0.87942764    -0.11300
C1470       C  0.58665203  0.56658709  0.87894592    -0.12800
C1471       C  0.62639750  0.98159095  0.98969287    -0.11300
C1472       C  0.63681066  0.50244680  0.01133843    -0.12800
C1473       C  0.55203755  0.58566895  0.12187872    -0.11300
C1474       C  0.57541924  0.57802521  0.12232930    -0.12800
C1475       C  0.77450406  0.56391420  0.11175259    -0.11300
C1476       C  0.80353916  0.56610579  0.11145135    -0.12800
C1477       C  0.51187581  0.91632793  0.12197922    -0.11300
C1478       C  0.54290072  0.93970338  0.12131844    -0.12800
C1479       C  0.77220152  0.68850718  0.11212231    -0.11300
C1480       C  0.79920685  0.71743323  0.11250132    -0.12800
C1481       C  0.91381193  0.98013836  0.12221954    -0.11300
C1482       C  0.90622955  0.94911453  0.12175832    -0.12800
C1483       C  0.92696293  0.72072963  0.11126506    -0.11300
C1484       C  0.92886488  0.69372882  0.11155880    -0.12800
C1485       C  0.72630106  0.79023877  0.88890970    -0.11300
C1486       C  0.69736649  0.76324906  0.88920495    -0.12800
C1487       C  0.94842085  0.53405687  0.88030473    -0.11300
C1488       C  0.92505030  0.50301172  0.87970725    -0.12800
C1489       C  0.72954913  0.91804172  0.89037212    -0.11300
C1490       C  0.70258985  0.92001196  0.89006027    -0.12800
C1491       C  0.95792496  0.89742108  0.87963059    -0.11300
C1492       C  0.98894904  0.90500862  0.87911420    -0.12800
C1493       C  0.86405727  0.86554258  0.98992931    -0.11300
C1494       C  0.87443343  0.85526711  0.01171350    -0.12800
C1495       C  0.90081106  0.59126152  0.23655084    -0.11300
C1496       C  0.90077991  0.59132121  0.26492140    -0.12800
C1497       C  0.59965463  0.69029365  0.76485380    -0.11300
C1498       C  0.59969903  0.69033567  0.73650589    -0.12800
C1499       C  0.99029792  0.61746166  0.48970351    -0.11300
C1500       C  0.51117396  0.62789059  0.51133407    -0.12800
C1501       C  0.60017643  0.89209901  0.73653699    -0.11300
C1502       C  0.60025480  0.89211428  0.76490887    -0.12800
C1503       C  0.57494596  0.79477839  0.61141772    -0.11300
C1504       C  0.57275939  0.76574341  0.61171924    -0.12800
C1505       C  0.59440433  0.54324952  0.62196827    -0.11300
C1506       C  0.58678270  0.56664663  0.62243154    -0.12800
C1507       C  0.69900556  0.59080449  0.26487261    -0.11300
C1508       C  0.69904724  0.59083369  0.23652449    -0.12800
C1509       C  0.62627767  0.98169528  0.51176183    -0.11300
C1510       C  0.63673405  0.50263643  0.49017379    -0.12800
C1511       C  0.57536952  0.57798902  0.37900451    -0.11300
C1512       C  0.55198418  0.58562878  0.37947504    -0.11600
C1513       C  0.77445025  0.56393754  0.38973271    -0.11300
C1514       C  0.80347070  0.56609247  0.39007358    -0.12800
C1515       C  0.90259702  0.79298940  0.26497245    -0.11300
C1516       C  0.90256924  0.79296902  0.23662342    -0.12800
C1517       C  0.90615059  0.94909104  0.37963142    -0.11300
C1518       C  0.91372506  0.98010839  0.37911572    -0.12800
C1519       C  0.92681598  0.72069913  0.39039291    -0.11300
C1520       C  0.92871200  0.69369565  0.39007618    -0.12800
C1521       C  0.51184339  0.91634231  0.37977776    -0.11300
C1522       C  0.54287473  0.93973314  0.38039838    -0.12800
C1523       C  0.77214693  0.68863297  0.38916205    -0.11300
C1524       C  0.79914630  0.71755850  0.38888803    -0.12800
C1525       C  0.80167319  0.89365750  0.76494230    -0.11300
C1526       C  0.80160674  0.89362430  0.73658957    -0.12800
C1527       C  0.69727496  0.76339640  0.61200283    -0.11300
C1528       C  0.72617627  0.79042862  0.61236037    -0.12800
C1529       C  0.92507356  0.50304911  0.62204240    -0.11300
C1530       C  0.94845273  0.53407831  0.62136801    -0.12800
C1531       C  0.70252282  0.92013690  0.61141490    -0.11300
C1532       C  0.72952982  0.91824397  0.61110870    -0.12800
C1533       C  0.95782514  0.89737595  0.62179622    -0.11300
C1534       C  0.98885352  0.90497281  0.62227005    -0.12800
C1535       C  0.86407347  0.86564106  0.51170906    -0.11300
C1536       C  0.87437133  0.85527979  0.48993229    -0.12800
loop_ 
_geom_bond_atom_site_label_1 
_geom_bond_atom_site_label_2 
_geom_bond_distance 
_geom_bond_site_symmetry_2 
_ccdc_geom_bond_type 
O1           Ni7   1.941       .  S
O1           C22   1.273       .  A
O2          Ni25   1.918       .  S
O2           C11   1.270       .  A
O3           Ni7   1.904       .  S
O3          Ni25   1.903       .  S
O3          Ni19   1.902       .  S
O3           H26   0.966       .  S
C4           O21   1.268       .  A
C4           O13   1.271       .  A
C4          C381   1.437       .  S
O5          Ni24   1.923       .  S
O5           C11   1.270       .  A
O6          Ni24   1.906       .  S
O6            C8   1.268       .  A
Ni7          O10   1.928       .  S
Ni7          O12   1.903       .  S
C8           O18   1.275       .  A
C8          C761   1.437       .  S
O9          Ni25   1.922       .  S
O9           C15   1.276       .  A
O10          C15   1.278       .  A
C11         C374   1.441       .  S
O12          C14   1.267       .  A
O13         Ni24   1.932       .  S
C14          O20   1.273       .  A
C14         C376   1.436       .  S
C15         C380   1.437       .  S
H16          O17   0.966       .  S
O17         Ni25   1.924       .  S
O17         Ni19   1.913       .  S
O17         Ni24   1.914       .  S
O18         Ni19   1.948       .  S
Ni19         O23   1.901       .  S
Ni19         O21   1.911       .  S
O20         Ni25   1.934       .  S
C22          O23   1.264       .  A
C22         C383   1.438       .  S
O27         Ni33   1.941       .  S
O27          C48   1.273       .  A
O28         Ni51   1.917       .  S
O28          C37   1.269       .  A
O29         Ni33   1.904       .  S
O29         Ni51   1.904       .  S
O29         Ni45   1.902       .  S
O29          H52   0.966       .  S
C30          O47   1.268       .  A
C30          O39   1.271       .  A
C30         C365   1.437       .  S
O31         Ni50   1.924       .  S
O31          C37   1.270       .  A
O32         Ni50   1.906       .  S
O32          C34   1.268       .  A
Ni33         O36   1.928       .  S
Ni33         O38   1.904       .  S
C34          O44   1.275       .  A
C34        C1137   1.437       .  S
O35         Ni51   1.921       .  S
O35          C41   1.276       .  A
O36          C41   1.278       .  A
C37         C363   1.440       .  S
O38          C40   1.267       .  A
O39         Ni50   1.932       .  S
C40          O46   1.273       .  A
C40         C372   1.436       .  S
C41         C367   1.437       .  S
H42          O43   0.966       .  S
O43         Ni51   1.924       .  S
O43         Ni45   1.913       .  S
O43         Ni50   1.914       .  S
O44         Ni45   1.948       .  S
Ni45         O49   1.901       .  S
Ni45         O47   1.911       .  S
O46         Ni51   1.934       .  S
C48          O49   1.264       .  A
C48         C384   1.438       .  S
O53         Ni59   1.942       .  S
O53          C74   1.273       .  A
O54         Ni77   1.917       .  S
O54          C63   1.269       .  A
O55         Ni59   1.904       .  S
O55         Ni77   1.904       .  S
O55         Ni71   1.903       .  S
O55          H78   0.966       .  S
C56          O73   1.268       .  A
C56          O65   1.271       .  A
C56         C370   1.437       .  S
O57         Ni76   1.924       .  S
O57          C63   1.270       .  A
O58         Ni76   1.905       .  S
O58          C60   1.268       .  A
Ni59         O62   1.928       .  S
Ni59         O64   1.903       .  S
C60          O70   1.275       .  A
C60         C359   1.437       .  S
O61         Ni77   1.922       .  S
O61          C67   1.276       .  A
O62          C67   1.278       .  A
C63         C355   1.440       .  S
O64          C66   1.266       .  A
O65        Ni460   1.932       .  S
C66          O72   1.273       .  A
C66         C361   1.436       .  S
C67         C371   1.437       .  S
H68          O69   0.967       .  S
O69         Ni77   1.923       .  S
O69         Ni71   1.913       .  S
O69         Ni76   1.914       .  S
O70         Ni71   1.947       .  S
Ni71         O75   1.901       .  S
Ni71        O457   1.911   1_545  S
O72         Ni77   1.934       .  S
O73        Ni455   1.911       .  S
C74          O75   1.264       .  A
C74         C358   1.438       .  S
Ni76        O449   1.932   1_545  S
O79         Ni85   1.942       .  S
O79         C100   1.273       .  A
O80        Ni103   1.919       .  S
O80          C89   1.270       .  A
O81         Ni85   1.904       .  S
O81        Ni103   1.904       .  S
O81         Ni97   1.902       .  S
O81         H104   0.966       .  S
C82         O483   1.268       .  A
C82         O475   1.272   1_545  A
C82         C353   1.436       .  S
O83        Ni102   1.925       .  S
O83          C89   1.270       .  A
O84        Ni102   1.906       .  S
O84          C86   1.268       .  A
Ni85         O88   1.928       .  S
Ni85         O90   1.904       .  S
C86          O96   1.275       .  A
C86        C1150   1.438   1_455  S
O87        Ni103   1.923       .  S
O87          C93   1.276       .  A
O88          C93   1.278       .  A
C89         C349   1.442       .  S
O90          C92   1.267       .  A
O91        Ni102   1.933       .  S
O91         C466   1.272       .  A
C92          O98   1.273       .  A
C92         C379   1.436       .  S
C93         C351   1.437       .  S
H94          O95   0.965       .  S
O95        Ni103   1.921       .  S
O95         Ni97   1.913       .  S
O95        Ni102   1.912       .  S
O96         Ni97   1.948       .  S
Ni97        O101   1.901       .  S
Ni97         O99   1.910       .  S
O98        Ni103   1.934       .  S
O99         C466   1.268       .  A
C100        O101   1.264       .  A
C100        C357   1.438       .  S
O105       Ni111   1.942       .  S
O105        C126   1.273       .  A
O106       Ni129   1.917       .  S
O106        C115   1.270       .  A
O107       Ni111   1.904       .  S
O107       Ni129   1.903       .  S
O107       Ni123   1.903       .  S
O107        H130   0.966       .  S
C108        O125   1.268       .  A
C108        O117   1.271       .  A
C108        C378   1.436       .  S
O109       Ni128   1.924       .  S
O109        C115   1.270       .  A
O110       Ni128   1.905       .  S
O110        C112   1.268       .  A
Ni111       O114   1.928       .  S
Ni111       O116   1.904       .  S
C112        O122   1.275       .  A
C112        C354   1.437       .  S
O113       Ni129   1.922       .  S
O113        C119   1.276       .  A
O114        C119   1.278       .  A
C115        C346   1.440       .  S
O116        C118   1.267       .  A
O117       Ni896   1.931       .  S
C118        O124   1.273       .  A
C118        C352   1.436       .  S
C119        C375   1.438       .  S
H120        O121   0.966       .  S
O121       Ni129   1.923       .  S
O121       Ni123   1.913       .  S
O121       Ni128   1.913       .  S
O122       Ni123   1.948       .  S
Ni123       O127   1.901       .  S
Ni123       O893   1.911   1_455  S
O124       Ni129   1.934       .  S
O125       Ni891   1.911       .  S
C126        O127   1.264       .  A
C126        C348   1.438       .  S
Ni128       O885   1.931   1_455  S
O131       Ni137   1.942       .  S
O131        C152   1.273       .  A
O132       Ni155   1.919       .  S
O132        C141   1.270       .  A
O133       Ni137   1.903       .  S
O133       Ni155   1.904       .  S
O133       Ni149   1.902       .  S
O133        H156   0.966       .  S
C134        O151   1.268       .  A
C134        O143   1.272       .  A
C134        C360   1.436       .  S
O135       Ni154   1.925       .  S
O135        C141   1.270       .  A
O136       Ni154   1.906       .  S
O136        C138   1.268       .  A
Ni137       O140   1.928       .  S
Ni137       O142   1.904       .  S
C138        O148   1.275       .  A
C138        C750   1.438   1_545  S
O139       Ni155   1.923       .  S
O139        C145   1.276       .  A
O140        C145   1.278       .  A
C141        C344   1.442       .  S
O142        C144   1.267       .  A
O143       Ni922   1.933   1_455  S
C144        O150   1.273       .  A
C144        C368   1.436       .  S
C145        C362   1.437       .  S
H146        O147   0.966       .  S
O147       Ni155   1.922       .  S
O147       Ni149   1.913       .  S
O147       Ni154   1.912       .  S
O148       Ni149   1.948       .  S
Ni149       O153   1.901       .  S
Ni149       O919   1.910       .  S
O150       Ni155   1.934       .  S
O151       Ni917   1.910   1_455  S
C152        O153   1.264       .  A
C152        C347   1.438       .  S
Ni154       O911   1.933       .  S
O157       Ni163   1.924       .  S
O157        C178   1.270       .  A
O158       Ni181   1.901       .  S
O158        C167   1.264       .  A
O159       Ni163   1.914       .  S
O159       Ni181   1.913       .  S
O159       Ni175   1.924       .  S
O159        H182   0.966       .  S
C160        O177   1.276       .  A
C160        O169   1.278       .  A
C160        C337   1.437       .  S
O161       Ni180   1.941       .  S
O161        C167   1.273       .  A
O162       Ni180   1.904       .  S
O162        C164   1.267       .  A
Ni163       O166   1.933       .  S
Ni163       O168   1.906       .  S
C164        O174   1.273       .  A
C164        C333   1.436       .  S
O165       Ni181   1.911       .  S
O165        C171   1.268       .  A
O166        C171   1.271       .  A
C167        C341   1.438       .  S
O168        C170   1.268       .  A
O169       Ni180   1.927       .  S
C170        O176   1.275       .  A
C170        C720   1.437       .  S
C171        C339   1.437       .  S
H172        O173   0.966       .  S
O173       Ni181   1.902       .  S
O173       Ni175   1.904       .  S
O173       Ni180   1.904       .  S
O174       Ni175   1.934       .  S
Ni175       O179   1.917       .  S
Ni175       O177   1.921       .  S
O176       Ni181   1.949       .  S
C178        O179   1.269       .  A
C178        C373   1.441       .  S
O183       Ni189   1.924       .  S
O183        C204   1.270       .  A
O184       Ni207   1.901       .  S
O184        C193   1.264       .  A
O185       Ni189   1.914       .  S
O185       Ni207   1.914       .  S
O185       Ni201   1.924       .  S
O185        H208   0.966       .  S
C186        O203   1.276       .  A
C186        O195   1.278       .  A
C186        C331   1.437       .  S
O187       Ni206   1.941       .  S
O187        C193   1.273       .  A
O188       Ni206   1.903       .  S
O188        C190   1.266       .  A
Ni189       O192   1.932       .  S
Ni189       O194   1.906       .  S
C190        O200   1.273       .  A
C190        C328   1.437       .  S
O191       Ni207   1.911       .  S
O191        C197   1.268       .  A
O192        C197   1.271       .  A
C193        C342   1.438       .  S
O194        C196   1.268       .  A
O195       Ni206   1.928       .  S
C196        O202   1.275       .  A
C196       C1093   1.437       .  S
C197        C330   1.437       .  S
H198        O199   0.966       .  S
O199       Ni207   1.902       .  S
O199       Ni201   1.903       .  S
O199       Ni206   1.904       .  S
O200       Ni201   1.935       .  S
Ni201       O205   1.917       .  S
Ni201       O203   1.922       .  S
O202       Ni207   1.948       .  S
C204        O205   1.270       .  A
C204        C364   1.440       .  S
O209       Ni215   1.924       .  S
O209        C230   1.270       .  A
O210       Ni233   1.901       .  S
O210        C219   1.264       .  A
O211       Ni215   1.913       .  S
O211       Ni233   1.913       .  S
O211       Ni227   1.922       .  S
O211        H234   0.966       .  S
C212        O229   1.276       .  A
C212        O221   1.278       .  A
C212        C327   1.438       .  S
O213       Ni232   1.942       .  S
O213        C219   1.273       .  A
O214       Ni232   1.903       .  S
O214        C216   1.266       .  A
Ni215       O220   1.905       .  S
Ni215       O602   1.931   1_545  S
C216        O226   1.273       .  A
C216        C323   1.436       .  S
O217       Ni617   1.911       .  S
O217        C223   1.268       .  A
O218       Ni599   1.931       .  S
O218        C223   1.271       .  A
C219        C320   1.438       .  S
O220        C222   1.268       .  A
O221       Ni232   1.928       .  S
C222        O228   1.275       .  A
C222        C322   1.437       .  S
C223        C326   1.436       .  S
H224        O225   0.966       .  S
O225       Ni233   1.902       .  S
O225       Ni227   1.903       .  S
O225       Ni232   1.904       .  S
O226       Ni227   1.934       .  S
Ni227       O231   1.917       .  S
Ni227       O229   1.922       .  S
O228       Ni233   1.948       .  S
C230        O231   1.269       .  A
C230        C356   1.440       .  S
Ni233       O601   1.911   1_545  S
O235       Ni241   1.925       .  S
O235        C256   1.270       .  A
O236       Ni259   1.901       .  S
O236        C245   1.264       .  A
O237       Ni241   1.912       .  S
O237       Ni259   1.913       .  S
O237       Ni253   1.922       .  S
O237        H260   0.965       .  S
C238        O255   1.276       .  A
C238        O247   1.278       .  A
C238        C316   1.437       .  S
O239       Ni258   1.942       .  S
O239        C245   1.273       .  A
O240       Ni258   1.904       .  S
O240        C242   1.267       .  A
Ni241       O244   1.933       .  S
Ni241       O246   1.906       .  S
C242        O252   1.273       .  A
C242        C338   1.436       .  S
O243       Ni259   1.910       .  S
O243        C633   1.268       .  A
O244        C633   1.272       .  A
C245        C319   1.438       .  S
O246        C248   1.268       .  A
O247       Ni258   1.927       .  S
C248        O254   1.275       .  A
C248       C1108   1.438   1_455  S
C249        O627   1.268       .  A
C249        O628   1.272   1_545  A
C249        C317   1.436       .  S
H250        O251   0.966       .  S
O251       Ni259   1.902       .  S
O251       Ni253   1.903       .  S
O251       Ni258   1.903       .  S
O252       Ni253   1.933       .  S
Ni253       O257   1.919       .  S
Ni253       O255   1.923       .  S
O254       Ni259   1.948       .  S
C256        O257   1.270       .  A
C256        C350   1.442       .  S
O261       Ni267   1.924       .  S
O261        C282   1.270       .  A
O262       Ni285   1.901       .  S
O262        C271   1.264       .  A
O263       Ni267   1.914       .  S
O263       Ni285   1.913       .  S
O263       Ni279   1.923       .  S
O263        H286   0.966       .  S
C264        O281   1.276       .  A
C264        O273   1.278       .  A
C264        C334   1.437       .  S
O265       Ni284   1.942       .  S
O265        C271   1.273       .  A
O266       Ni284   1.903       .  S
O266        C268   1.266       .  A
Ni267       O272   1.905       .  S
Ni267      O1038   1.932   1_455  S
C268        O278   1.273       .  A
C268        C315   1.436       .  S
O269      Ni1053   1.911       .  S
O269        C275   1.268       .  A
O270      Ni1035   1.932       .  S
O270        C275   1.271       .  A
C271        C314   1.438       .  S
O272        C274   1.268       .  A
O273       Ni284   1.928       .  S
C274        O280   1.275       .  A
C274        C318   1.437       .  S
C275        C335   1.437       .  S
H276        O277   0.966       .  S
O277       Ni285   1.903       .  S
O277       Ni279   1.904       .  S
O277       Ni284   1.904       .  S
O278       Ni279   1.934       .  S
Ni279       O283   1.917       .  S
Ni279       O281   1.922       .  S
O280       Ni285   1.947       .  S
C282        O283   1.269       .  A
C282        C345   1.440       .  S
Ni285      O1037   1.911   1_455  S
O287       Ni293   1.926       .  S
O287        C308   1.270       .  A
O288       Ni311   1.901       .  S
O288        C297   1.264       .  A
O289       Ni293   1.912       .  S
O289       Ni311   1.913       .  S
O289       Ni305   1.921       .  S
O289        H312   0.966       .  S
C290        O307   1.276       .  A
C290        O299   1.278       .  A
C290        C324   1.437       .  S
O291       Ni310   1.942       .  S
O291        C297   1.273       .  A
O292       Ni310   1.904       .  S
O292        C294   1.267       .  A
Ni293       O298   1.906       .  S
Ni293      O1064   1.933       .  S
C294        O304   1.273       .  A
C294        C332   1.436       .  S
O295      Ni1079   1.910   1_455  S
O295        C301   1.268       .  A
O296      Ni1061   1.933   1_455  S
O296        C301   1.272       .  A
C297        C313   1.438       .  S
O298        C300   1.268       .  A
O299       Ni310   1.928       .  S
C300        O306   1.275       .  A
C300        C713   1.438   1_545  S
C301        C321   1.436       .  S
H302        O303   0.966       .  S
O303       Ni311   1.902       .  S
O303       Ni305   1.904       .  S
O303       Ni310   1.904       .  S
O304       Ni305   1.933       .  S
Ni305       O309   1.919       .  S
Ni305       O307   1.922       .  S
O306       Ni311   1.948       .  S
C308        O309   1.270       .  A
C308        C343   1.442       .  S
Ni311      O1063   1.910       .  S
C313       C1082   1.208   1_554  T
C314       C1081   1.208   1_456  T
C315        C316   1.207       .  T
C317        C318   1.207       .  T
C319        C704   1.208   1_556  T
C320        C703   1.208   1_544  T
C321        C322   1.207       .  T
C323        C324   1.207       .  T
C325        C964   1.437   1_455  S
C325        C326   1.207       .  T
C327        C328   1.207       .  T
C329        C684   1.438       .  S
C329        C330   1.207       .  T
C331        C332   1.207       .  T
C333        C334   1.207       .  T
C335        C336   1.207       .  T
C336        C554   1.437   1_545  S
C337        C338   1.207       .  T
C339        C340   1.207       .  T
C340       C1016   1.438       .  S
C341        C342   1.207   1_556  T
C343        C344   1.210       .  T
C345        C346   1.209       .  T
C347       C1116   1.208       .  T
C348       C1115   1.208   1_455  T
C349        C350   1.210       .  T
C351        C352   1.207       .  T
C353        C354   1.207       .  T
C355        C356   1.209       .  T
C357        C742   1.208       .  T
C358        C741   1.208   1_545  T
C359        C360   1.207       .  T
C361        C362   1.207       .  T
C363        C364   1.209       .  T
C365        C366   1.207       .  T
C366        C522   1.438       .  S
C367        C368   1.207       .  T
C369        C802   1.437   1_455  S
C369        C370   1.207       .  T
C371        C372   1.207       .  T
C373        C374   1.210       .  T
C375        C376   1.207       .  T
C377        C392   1.437   1_545  S
C377        C378   1.207       .  T
C379        C380   1.207       .  T
C381        C382   1.207       .  T
C382        C854   1.438       .  S
C383        C384   1.207       .  T
O385       Ni391   1.941       .  S
O385        C406   1.273       .  A
O386       Ni409   1.918       .  S
O386        C395   1.270       .  A
O387       Ni391   1.904       .  S
O387       Ni409   1.903       .  S
O387       Ni403   1.902       .  S
O387        H410   0.966       .  S
C388        O405   1.268       .  A
C388        O397   1.271       .  A
C388        C765   1.437       .  S
O389       Ni408   1.923       .  S
O389        C395   1.270       .  A
O390       Ni408   1.906       .  S
O390        C392   1.268       .  A
Ni391       O394   1.928       .  S
Ni391       O396   1.903       .  S
C392        O402   1.275       .  A
O393       Ni409   1.922       .  S
O393        C399   1.276       .  A
O394        C399   1.278       .  A
C395        C758   1.441       .  S
O396        C398   1.267       .  A
O397       Ni408   1.932       .  S
C398        O404   1.273       .  A
C398        C760   1.436       .  S
C399        C764   1.437       .  S
H400        O401   0.966       .  S
O401       Ni409   1.924       .  S
O401       Ni403   1.913       .  S
O401       Ni408   1.914       .  S
O402       Ni403   1.948       .  S
Ni403       O407   1.901       .  S
Ni403       O405   1.911       .  S
O404       Ni409   1.934       .  S
C406        O407   1.264       .  A
C406        C767   1.438       .  S
O411       Ni417   1.941       .  S
O411        C432   1.273       .  A
O412       Ni435   1.917       .  S
O412        C421   1.269       .  A
O413       Ni417   1.904       .  S
O413       Ni435   1.904       .  S
O413       Ni429   1.902       .  S
O413        H436   0.966       .  S
C414        O431   1.268       .  A
C414        O423   1.271       .  A
C414        C749   1.437       .  S
O415       Ni434   1.924       .  S
O415        C421   1.270       .  A
O416       Ni434   1.906       .  S
O416        C418   1.268       .  A
Ni417       O420   1.928       .  S
Ni417       O422   1.904       .  S
C418        O428   1.275       .  A
C418       C1521   1.437       .  S
O419       Ni435   1.921       .  S
O419        C425   1.276       .  A
O420        C425   1.278       .  A
C421        C747   1.440       .  S
O422        C424   1.267       .  A
O423       Ni434   1.932       .  S
C424        O430   1.273       .  A
C424        C756   1.436       .  S
C425        C751   1.437       .  S
H426        O427   0.966       .  S
O427       Ni435   1.924       .  S
O427       Ni429   1.913       .  S
O427       Ni434   1.914       .  S
O428       Ni429   1.948       .  S
Ni429       O433   1.901       .  S
Ni429       O431   1.911       .  S
O430       Ni435   1.934       .  S
C432        O433   1.264       .  A
C432        C768   1.438       .  S
O437       Ni443   1.942       .  S
O437        C458   1.273       .  A
O438       Ni461   1.917       .  S
O438        C447   1.269       .  A
O439       Ni443   1.904       .  S
O439       Ni461   1.904       .  S
O439       Ni455   1.903       .  S
O439        H462   0.966       .  S
C440        O457   1.268       .  A
C440        O449   1.271       .  A
C440        C754   1.437       .  S
O441       Ni460   1.924       .  S
O441        C447   1.270       .  A
O442       Ni460   1.905       .  S
O442        C444   1.268       .  A
Ni443       O446   1.928       .  S
Ni443       O448   1.903       .  S
C444        O454   1.275       .  A
C444        C743   1.437       .  S
O445       Ni461   1.922       .  S
O445        C451   1.276       .  A
O446        C451   1.278       .  A
C447        C739   1.440       .  S
O448        C450   1.266       .  A
C450        O456   1.273       .  A
C450        C745   1.436       .  S
C451        C755   1.437       .  S
H452        O453   0.967       .  S
O453       Ni461   1.923       .  S
O453       Ni455   1.913       .  S
O453       Ni460   1.914       .  S
O454       Ni455   1.947       .  S
Ni455       O459   1.901       .  S
O456       Ni461   1.934       .  S
C458        O459   1.264       .  A
C458        C742   1.438       .  S
O463       Ni469   1.942       .  S
O463        C484   1.273       .  A
O464       Ni487   1.919       .  S
O464        C473   1.270       .  A
O465       Ni469   1.904       .  S
O465       Ni487   1.904       .  S
O465       Ni481   1.902       .  S
O465        H488   0.966       .  S
C466        C737   1.436       .  S
O467       Ni486   1.925       .  S
O467        C473   1.270       .  A
O468       Ni486   1.906       .  S
O468        C470   1.268       .  A
Ni469       O472   1.928       .  S
Ni469       O474   1.904       .  S
C470        O480   1.275       .  A
C470       C1534   1.438   1_455  S
O471       Ni487   1.923       .  S
O471        C477   1.276       .  A
O472        C477   1.278       .  A
C473        C733   1.442       .  S
O474        C476   1.267       .  A
O475       Ni486   1.933       .  S
C476        O482   1.273       .  A
C476        C763   1.436       .  S
C477        C735   1.437       .  S
H478        O479   0.965       .  S
O479       Ni487   1.921       .  S
O479       Ni481   1.913       .  S
O479       Ni486   1.912       .  S
O480       Ni481   1.948       .  S
Ni481       O485   1.901       .  S
Ni481       O483   1.910   1_565  S
O482       Ni487   1.934       .  S
C484        O485   1.264       .  A
C484        C741   1.438       .  S
O489       Ni495   1.942       .  S
O489        C510   1.273       .  A
O490       Ni513   1.917       .  S
O490        C499   1.270       .  A
O491       Ni495   1.904       .  S
O491       Ni513   1.903       .  S
O491       Ni507   1.903       .  S
O491        H514   0.966       .  S
C492        O509   1.268       .  A
C492        O501   1.271       .  A
C492        C762   1.436       .  S
O493       Ni512   1.924       .  S
O493        C499   1.270       .  A
O494       Ni512   1.905       .  S
O494        C496   1.268       .  A
Ni495       O498   1.928       .  S
Ni495       O500   1.904       .  S
C496        O506   1.275       .  A
C496        C738   1.437       .  S
O497       Ni513   1.922       .  S
O497        C503   1.276       .  A
O498        C503   1.278       .  A
C499        C730   1.440       .  S
O500        C502   1.267       .  A
O501      Ni1280   1.931       .  S
C502        O508   1.273       .  A
C502        C736   1.436       .  S
C503        C759   1.438       .  S
H504        O505   0.966       .  S
O505       Ni513   1.923       .  S
O505       Ni507   1.913       .  S
O505       Ni512   1.913       .  S
O506       Ni507   1.948       .  S
Ni507       O511   1.901       .  S
Ni507      O1277   1.911   1_455  S
O508       Ni513   1.934       .  S
O509      Ni1275   1.911       .  S
C510        O511   1.264       .  A
C510        C732   1.438       .  S
Ni512      O1269   1.931   1_455  S
O515       Ni521   1.942       .  S
O515        C536   1.273       .  A
O516       Ni539   1.919       .  S
O516        C525   1.270       .  A
O517       Ni521   1.903       .  S
O517       Ni539   1.904       .  S
O517       Ni533   1.902       .  S
O517        H540   0.966       .  S
C518        O535   1.268       .  A
C518        O527   1.272       .  A
C518        C744   1.436       .  S
O519       Ni538   1.925       .  S
O519        C525   1.270       .  A
O520       Ni538   1.906       .  S
O520        C522   1.268       .  A
Ni521       O524   1.928       .  S
Ni521       O526   1.904       .  S
C522        O532   1.275       .  A
O523       Ni539   1.923       .  S
O523        C529   1.276       .  A
O524        C529   1.278       .  A
C525        C728   1.442       .  S
O526        C528   1.267       .  A
O527      Ni1306   1.933   1_455  S
C528        O534   1.273       .  A
C528        C752   1.436       .  S
C529        C746   1.437       .  S
H530        O531   0.966       .  S
O531       Ni539   1.922       .  S
O531       Ni533   1.913       .  S
O531       Ni538   1.912       .  S
O532       Ni533   1.948       .  S
Ni533       O537   1.901       .  S
Ni533      O1303   1.910       .  S
O534       Ni539   1.934       .  S
O535      Ni1301   1.910   1_455  S
C536        O537   1.264       .  A
C536        C731   1.438       .  S
Ni538      O1295   1.933       .  S
O541       Ni547   1.924       .  S
O541        C562   1.270       .  A
O542       Ni565   1.901       .  S
O542        C551   1.264       .  A
O543       Ni547   1.914       .  S
O543       Ni565   1.913       .  S
O543       Ni559   1.924       .  S
O543        H566   0.966       .  S
C544        O561   1.276       .  A
C544        O553   1.278       .  A
C544        C721   1.437       .  S
O545       Ni564   1.941       .  S
O545        C551   1.273       .  A
O546       Ni564   1.904       .  S
O546        C548   1.267       .  A
Ni547       O550   1.933       .  S
Ni547       O552   1.906       .  S
C548        O558   1.273       .  A
C548        C717   1.436       .  S
O549       Ni565   1.911       .  S
O549        C555   1.268       .  A
O550        C555   1.271       .  A
C551        C725   1.438       .  S
O552        C554   1.268       .  A
O553       Ni564   1.927       .  S
C554        O560   1.275       .  A
C555        C723   1.437       .  S
H556        O557   0.966       .  S
O557       Ni565   1.902       .  S
O557       Ni559   1.904       .  S
O557       Ni564   1.904       .  S
O558       Ni559   1.934       .  S
Ni559       O563   1.917       .  S
Ni559       O561   1.921       .  S
O560       Ni565   1.949       .  S
C562        O563   1.269       .  A
C562        C757   1.441       .  S
O567       Ni573   1.924       .  S
O567        C588   1.270       .  A
O568       Ni591   1.901       .  S
O568        C577   1.264       .  A
O569       Ni573   1.914       .  S
O569       Ni591   1.914       .  S
O569       Ni585   1.924       .  S
O569        H592   0.966       .  S
C570        O587   1.276       .  A
C570        O579   1.278       .  A
C570        C715   1.437       .  S
O571       Ni590   1.941       .  S
O571        C577   1.273       .  A
O572       Ni590   1.903       .  S
O572        C574   1.266       .  A
Ni573       O576   1.932       .  S
Ni573       O578   1.906       .  S
C574        O584   1.273       .  A
C574        C712   1.437       .  S
O575       Ni591   1.911       .  S
O575        C581   1.268       .  A
O576        C581   1.271       .  A
C577        C726   1.438       .  S
O578        C580   1.268       .  A
O579       Ni590   1.928       .  S
C580        O586   1.275       .  A
C580       C1477   1.437       .  S
C581        C714   1.437       .  S
H582        O583   0.966       .  S
O583       Ni591   1.902       .  S
O583       Ni585   1.903       .  S
O583       Ni590   1.904       .  S
O584       Ni585   1.935       .  S
Ni585       O589   1.917       .  S
Ni585       O587   1.922       .  S
O586       Ni591   1.948       .  S
C588        O589   1.270       .  A
C588        C748   1.440       .  S
O593       Ni599   1.924       .  S
O593        C614   1.270       .  A
O594       Ni617   1.901       .  S
O594        C603   1.264       .  A
O595       Ni599   1.913       .  S
O595       Ni617   1.913       .  S
O595       Ni611   1.922       .  S
O595        H618   0.966       .  S
C596        O613   1.276       .  A
C596        O605   1.278       .  A
C596        C711   1.438       .  S
O597       Ni616   1.942       .  S
O597        C603   1.273       .  A
O598       Ni616   1.903       .  S
O598        C600   1.266       .  A
Ni599       O604   1.905       .  S
C600        O610   1.273       .  A
C600        C707   1.436       .  S
O601        C607   1.268       .  A
O602        C607   1.271       .  A
C603        C704   1.438       .  S
O604        C606   1.268       .  A
O605       Ni616   1.928       .  S
C606        O612   1.275       .  A
C606        C706   1.437       .  S
C607        C710   1.436       .  S
H608        O609   0.966       .  S
O609       Ni617   1.902       .  S
O609       Ni611   1.903       .  S
O609       Ni616   1.904       .  S
O610       Ni611   1.934       .  S
Ni611       O615   1.917       .  S
Ni611       O613   1.922       .  S
O612       Ni617   1.948       .  S
C614        O615   1.269       .  A
C614        C740   1.440       .  S
O619       Ni625   1.925       .  S
O619        C640   1.270       .  A
O620       Ni643   1.901       .  S
O620        C629   1.264       .  A
O621       Ni625   1.912       .  S
O621       Ni643   1.913       .  S
O621       Ni637   1.922       .  S
O621        H644   0.965       .  S
C622        O639   1.276       .  A
C622        O631   1.278       .  A
C622        C700   1.437       .  S
O623       Ni642   1.942       .  S
O623        C629   1.273       .  A
O624       Ni642   1.904       .  S
O624        C626   1.267       .  A
Ni625       O628   1.933       .  S
Ni625       O630   1.906       .  S
C626        O636   1.273       .  A
C626        C722   1.436       .  S
O627       Ni643   1.910   1_545  S
C629        C703   1.438       .  S
O630        C632   1.268       .  A
O631       Ni642   1.927       .  S
C632        O638   1.275       .  A
C632       C1492   1.438   1_455  S
C633        C701   1.436       .  S
H634        O635   0.966       .  S
O635       Ni643   1.902       .  S
O635       Ni637   1.903       .  S
O635       Ni642   1.903       .  S
O636       Ni637   1.933       .  S
Ni637       O641   1.919       .  S
Ni637       O639   1.923       .  S
O638       Ni643   1.948       .  S
C640        O641   1.270       .  A
C640        C734   1.442       .  S
O645       Ni651   1.924       .  S
O645        C666   1.270       .  A
O646       Ni669   1.901       .  S
O646        C655   1.264       .  A
O647       Ni651   1.914       .  S
O647       Ni669   1.913       .  S
O647       Ni663   1.923       .  S
O647        H670   0.966       .  S
C648        O665   1.276       .  A
C648        O657   1.278       .  A
C648        C718   1.437       .  S
O649       Ni668   1.942       .  S
O649        C655   1.273       .  A
O650       Ni668   1.903       .  S
O650        C652   1.266       .  A
Ni651      O1422   1.932   1_455  S
Ni651       O656   1.905       .  S
C652        O662   1.273       .  A
C652        C699   1.436       .  S
O653      Ni1437   1.911       .  S
O653        C659   1.268       .  A
O654      Ni1419   1.932       .  S
O654        C659   1.271       .  A
C655        C698   1.438       .  S
O656        C658   1.268       .  A
O657       Ni668   1.928       .  S
C658        O664   1.275       .  A
C658        C702   1.437       .  S
C659        C719   1.437       .  S
H660        O661   0.966       .  S
O661       Ni669   1.903       .  S
O661       Ni663   1.904       .  S
O661       Ni668   1.904       .  S
O662       Ni663   1.934       .  S
Ni663       O667   1.917       .  S
Ni663       O665   1.922       .  S
O664       Ni669   1.947       .  S
C666        O667   1.269       .  A
C666        C729   1.440       .  S
Ni669      O1421   1.911   1_455  S
O671       Ni677   1.926       .  S
O671        C692   1.270       .  A
O672       Ni695   1.901       .  S
O672        C681   1.264       .  A
O673       Ni677   1.912       .  S
O673       Ni695   1.913       .  S
O673       Ni689   1.921       .  S
O673        H696   0.966       .  S
C674        O691   1.276       .  A
C674        O683   1.278       .  A
C674        C708   1.437       .  S
O675       Ni694   1.942       .  S
O675        C681   1.273       .  A
O676       Ni694   1.904       .  S
O676        C678   1.267       .  A
Ni677      O1448   1.933       .  S
Ni677       O682   1.906       .  S
C678        O688   1.273       .  A
C678        C716   1.436       .  S
O679      Ni1463   1.910   1_455  S
O679        C685   1.268       .  A
O680      Ni1445   1.933   1_455  S
O680        C685   1.272       .  A
C681        C697   1.438       .  S
O682        C684   1.268       .  A
O683       Ni694   1.928       .  S
C684        O690   1.275       .  A
C685        C705   1.436       .  S
H686        O687   0.966       .  S
O687       Ni695   1.902       .  S
O687       Ni689   1.904       .  S
O687       Ni694   1.904       .  S
O688       Ni689   1.933       .  S
Ni689       O693   1.919       .  S
Ni689       O691   1.922       .  S
O690       Ni695   1.948       .  S
C692        O693   1.270       .  A
C692        C727   1.442       .  S
Ni695      O1447   1.910       .  S
C697       C1466   1.208   1_554  T
C698       C1465   1.208   1_456  T
C699        C700   1.207       .  T
C701        C702   1.207       .  T
C705        C706   1.207       .  T
C707        C708   1.207       .  T
C709       C1348   1.437   1_455  S
C709        C710   1.207       .  T
C711        C712   1.207       .  T
C713        C714   1.207       .  T
C715        C716   1.207       .  T
C717        C718   1.207       .  T
C719        C720   1.207       .  T
C721        C722   1.207       .  T
C723        C724   1.207       .  T
C724       C1400   1.438       .  S
C725        C726   1.207   1_556  T
C727        C728   1.210       .  T
C729        C730   1.209       .  T
C731       C1500   1.208       .  T
C732       C1499   1.208   1_455  T
C733        C734   1.210       .  T
C735        C736   1.207       .  T
C737        C738   1.207       .  T
C739        C740   1.209       .  T
C743        C744   1.207       .  T
C745        C746   1.207       .  T
C747        C748   1.209       .  T
C749        C750   1.207       .  T
C751        C752   1.207       .  T
C753       C1186   1.437   1_455  S
C753        C754   1.207       .  T
C755        C756   1.207       .  T
C757        C758   1.210       .  T
C759        C760   1.207       .  T
C761        C762   1.207       .  T
C763        C764   1.207       .  T
C765        C766   1.207       .  T
C766       C1238   1.438       .  S
C767        C768   1.207       .  T
O769       Ni775   1.941       .  S
O769        C790   1.273       .  A
O770       Ni793   1.918       .  S
O770        C779   1.270       .  A
O771       Ni775   1.904       .  S
O771       Ni793   1.903       .  S
O771       Ni787   1.902       .  S
O771        H794   0.966       .  S
C772        O789   1.268       .  A
C772        O781   1.271       .  A
C772       C1149   1.437       .  S
O773       Ni792   1.923       .  S
O773        C779   1.270       .  A
O774       Ni792   1.906       .  S
O774        C776   1.268       .  A
Ni775       O778   1.928       .  S
Ni775       O780   1.903       .  S
C776        O786   1.275       .  A
C776       C1529   1.437       .  S
O777       Ni793   1.922       .  S
O777        C783   1.276       .  A
O778        C783   1.278       .  A
C779       C1142   1.441       .  S
O780        C782   1.267       .  A
O781       Ni792   1.932       .  S
C782        O788   1.273       .  A
C782       C1144   1.436       .  S
C783       C1148   1.437       .  S
H784        O785   0.966       .  S
O785       Ni793   1.924       .  S
O785       Ni787   1.913       .  S
O785       Ni792   1.914       .  S
O786       Ni787   1.948       .  S
Ni787       O791   1.901       .  S
Ni787       O789   1.911       .  S
O788       Ni793   1.934       .  S
C790        O791   1.264       .  A
C790       C1151   1.438       .  S
O795       Ni801   1.941       .  S
O795        C816   1.273       .  A
O796       Ni819   1.917       .  S
O796        C805   1.269       .  A
O797       Ni801   1.904       .  S
O797       Ni819   1.904       .  S
O797       Ni813   1.902       .  S
O797        H820   0.966       .  S
C798        O815   1.268       .  A
C798        O807   1.271       .  A
C798       C1133   1.437       .  S
O799       Ni818   1.924       .  S
O799        C805   1.270       .  A
O800       Ni818   1.906       .  S
O800        C802   1.268       .  A
Ni801       O804   1.928       .  S
Ni801       O806   1.904       .  S
C802        O812   1.275       .  A
O803       Ni819   1.921       .  S
O803        C809   1.276       .  A
O804        C809   1.278       .  A
C805       C1131   1.440       .  S
O806        C808   1.267       .  A
O807       Ni818   1.932       .  S
C808        O814   1.273       .  A
C808       C1140   1.436       .  S
C809       C1135   1.437       .  S
H810        O811   0.966       .  S
O811       Ni819   1.924       .  S
O811       Ni813   1.913       .  S
O811       Ni818   1.914       .  S
O812       Ni813   1.948       .  S
Ni813       O817   1.901       .  S
Ni813       O815   1.911       .  S
O814       Ni819   1.934       .  S
C816        O817   1.264       .  A
C816       C1152   1.438       .  S
O821       Ni827   1.942       .  S
O821        C842   1.273       .  A
O822       Ni845   1.917       .  S
O822        C831   1.269       .  A
O823       Ni827   1.904       .  S
O823       Ni845   1.904       .  S
O823       Ni839   1.903       .  S
O823        H846   0.966       .  S
C824        O841   1.268       .  A
C824        O833   1.271       .  A
C824       C1138   1.437       .  S
O825       Ni844   1.924       .  S
O825        C831   1.270       .  A
O826       Ni844   1.905       .  S
O826        C828   1.268       .  A
Ni827       O830   1.928       .  S
Ni827       O832   1.903       .  S
C828        O838   1.275       .  A
C828       C1127   1.437       .  S
O829       Ni845   1.922       .  S
O829        C835   1.276       .  A
O830        C835   1.278       .  A
C831       C1123   1.440       .  S
O832        C834   1.266       .  A
O833      Ni1228   1.932       .  S
C834        O840   1.273       .  A
C834       C1129   1.436       .  S
C835       C1139   1.437       .  S
H836        O837   0.967       .  S
O837       Ni845   1.923       .  S
O837       Ni839   1.913       .  S
O837       Ni844   1.914       .  S
O838       Ni839   1.947       .  S
Ni839       O843   1.901       .  S
Ni839      O1225   1.911   1_545  S
O840       Ni845   1.934       .  S
O841      Ni1223   1.911       .  S
C842        O843   1.264       .  A
C842       C1126   1.438       .  S
Ni844      O1217   1.932   1_545  S
O847       Ni853   1.942       .  S
O847        C868   1.273       .  A
O848       Ni871   1.919       .  S
O848        C857   1.270       .  A
O849       Ni853   1.904       .  S
O849       Ni871   1.904       .  S
O849       Ni865   1.902       .  S
O849        H872   0.966       .  S
C850       O1251   1.268       .  A
C850       O1243   1.272   1_545  A
C850       C1121   1.436       .  S
O851       Ni870   1.925       .  S
O851        C857   1.270       .  A
O852       Ni870   1.906       .  S
O852        C854   1.268       .  A
Ni853       O856   1.928       .  S
Ni853       O858   1.904       .  S
C854        O864   1.275       .  A
O855       Ni871   1.923       .  S
O855        C861   1.276       .  A
O856        C861   1.278       .  A
C857       C1117   1.442       .  S
O858        C860   1.267       .  A
O859       Ni870   1.933       .  S
O859       C1234   1.272       .  A
C860        O866   1.273       .  A
C860       C1147   1.436       .  S
C861       C1119   1.437       .  S
H862        O863   0.965       .  S
O863       Ni871   1.921       .  S
O863       Ni865   1.913       .  S
O863       Ni870   1.912       .  S
O864       Ni865   1.948       .  S
Ni865       O869   1.901       .  S
Ni865       O867   1.910       .  S
O866       Ni871   1.934       .  S
O867       C1234   1.268       .  A
C868        O869   1.264       .  A
C868       C1125   1.438       .  S
O873       Ni879   1.942       .  S
O873        C894   1.273       .  A
O874       Ni897   1.917       .  S
O874        C883   1.270       .  A
O875       Ni879   1.904       .  S
O875       Ni897   1.903       .  S
O875       Ni891   1.903       .  S
O875        H898   0.966       .  S
C876        O893   1.268       .  A
C876        O885   1.271       .  A
C876       C1146   1.436       .  S
O877       Ni896   1.924       .  S
O877        C883   1.270       .  A
O878       Ni896   1.905       .  S
O878        C880   1.268       .  A
Ni879       O882   1.928       .  S
Ni879       O884   1.904       .  S
C880        O890   1.275       .  A
C880       C1122   1.437       .  S
O881       Ni897   1.922       .  S
O881        C887   1.276       .  A
O882        C887   1.278       .  A
C883       C1114   1.440       .  S
O884        C886   1.267       .  A
C886        O892   1.273       .  A
C886       C1120   1.436       .  S
C887       C1143   1.438       .  S
H888        O889   0.966       .  S
O889       Ni897   1.923       .  S
O889       Ni891   1.913       .  S
O889       Ni896   1.913       .  S
O890       Ni891   1.948       .  S
Ni891       O895   1.901       .  S
O892       Ni897   1.934       .  S
C894        O895   1.264       .  A
C894       C1116   1.438       .  S
O899       Ni905   1.942       .  S
O899        C920   1.273       .  A
O900       Ni923   1.919       .  S
O900        C909   1.270       .  A
O901       Ni905   1.903       .  S
O901       Ni923   1.904       .  S
O901       Ni917   1.902       .  S
O901        H924   0.966       .  S
C902        O919   1.268       .  A
C902        O911   1.272       .  A
C902       C1128   1.436       .  S
O903       Ni922   1.925       .  S
O903        C909   1.270       .  A
O904       Ni922   1.906       .  S
O904        C906   1.268       .  A
Ni905       O908   1.928       .  S
Ni905       O910   1.904       .  S
C906        O916   1.275       .  A
C906       C1518   1.438   1_545  S
O907       Ni923   1.923       .  S
O907        C913   1.276       .  A
O908        C913   1.278       .  A
C909       C1112   1.442       .  S
O910        C912   1.267       .  A
C912        O918   1.273       .  A
C912       C1136   1.436       .  S
C913       C1130   1.437       .  S
H914        O915   0.966       .  S
O915       Ni923   1.922       .  S
O915       Ni917   1.913       .  S
O915       Ni922   1.912       .  S
O916       Ni917   1.948       .  S
Ni917       O921   1.901       .  S
O918       Ni923   1.934       .  S
C920        O921   1.264       .  A
C920       C1115   1.438       .  S
O925       Ni931   1.924       .  S
O925        C946   1.270       .  A
O926       Ni949   1.901       .  S
O926        C935   1.264       .  A
O927       Ni931   1.914       .  S
O927       Ni949   1.913       .  S
O927       Ni943   1.924       .  S
O927        H950   0.966       .  S
C928        O945   1.276       .  A
C928        O937   1.278       .  A
C928       C1105   1.437       .  S
O929       Ni948   1.941       .  S
O929        C935   1.273       .  A
O930       Ni948   1.904       .  S
O930        C932   1.267       .  A
Ni931       O934   1.933       .  S
Ni931       O936   1.906       .  S
C932        O942   1.273       .  A
C932       C1101   1.436       .  S
O933       Ni949   1.911       .  S
O933        C939   1.268       .  A
O934        C939   1.271       .  A
C935       C1109   1.438       .  S
O936        C938   1.268       .  A
O937       Ni948   1.927       .  S
C938        O944   1.275       .  A
C938       C1488   1.437       .  S
C939       C1107   1.437       .  S
H940        O941   0.966       .  S
O941       Ni949   1.902       .  S
O941       Ni943   1.904       .  S
O941       Ni948   1.904       .  S
O942       Ni943   1.934       .  S
Ni943       O947   1.917       .  S
Ni943       O945   1.921       .  S
O944       Ni949   1.949       .  S
C946        O947   1.269       .  A
C946       C1141   1.441       .  S
O951       Ni957   1.924       .  S
O951        C972   1.270       .  A
O952       Ni975   1.901       .  S
O952        C961   1.264       .  A
O953       Ni957   1.914       .  S
O953       Ni975   1.914       .  S
O953       Ni969   1.924       .  S
O953        H976   0.966       .  S
C954        O971   1.276       .  A
C954        O963   1.278       .  A
C954       C1099   1.437       .  S
O955       Ni974   1.941       .  S
O955        C961   1.273       .  A
O956       Ni974   1.903       .  S
O956        C958   1.266       .  A
Ni957       O960   1.932       .  S
Ni957       O962   1.906       .  S
C958        O968   1.273       .  A
C958       C1096   1.437       .  S
O959       Ni975   1.911       .  S
O959        C965   1.268       .  A
O960        C965   1.271       .  A
C961       C1110   1.438       .  S
O962        C964   1.268       .  A
O963       Ni974   1.928       .  S
C964        O970   1.275       .  A
C965       C1098   1.437       .  S
H966        O967   0.966       .  S
O967       Ni975   1.902       .  S
O967       Ni969   1.903       .  S
O967       Ni974   1.904       .  S
O968       Ni969   1.935       .  S
Ni969       O973   1.917       .  S
Ni969       O971   1.922       .  S
O970       Ni975   1.948       .  S
C972        O973   1.270       .  A
C972       C1132   1.440       .  S
O977       Ni983   1.924       .  S
O977        C998   1.270       .  A
O978      Ni1001   1.901       .  S
O978        C987   1.264       .  A
O979       Ni983   1.913       .  S
O979      Ni1001   1.913       .  S
O979       Ni995   1.922       .  S
O979       H1002   0.966       .  S
C980        O997   1.276       .  A
C980        O989   1.278       .  A
C980       C1095   1.438       .  S
O981      Ni1000   1.942       .  S
O981        C987   1.273       .  A
O982      Ni1000   1.903       .  S
O982        C984   1.266       .  A
Ni983      O1370   1.931   1_545  S
Ni983       O988   1.905       .  S
C984        O994   1.273       .  A
C984       C1091   1.436       .  S
O985      Ni1385   1.911       .  S
O985        C991   1.268       .  A
O986      Ni1367   1.931       .  S
O986        C991   1.271       .  A
C987       C1088   1.438       .  S
O988        C990   1.268       .  A
O989      Ni1000   1.928       .  S
C990        O996   1.275       .  A
C990       C1090   1.437       .  S
C991       C1094   1.436       .  S
H992        O993   0.966       .  S
O993      Ni1001   1.902       .  S
O993       Ni995   1.903       .  S
O993      Ni1000   1.904       .  S
O994       Ni995   1.934       .  S
Ni995       O999   1.917       .  S
Ni995       O997   1.922       .  S
O996      Ni1001   1.948       .  S
C998        O999   1.269       .  A
C998       C1124   1.440       .  S
Ni1001     O1369   1.911   1_545  S
O1003     Ni1009   1.925       .  S
O1003      C1024   1.270       .  A
O1004     Ni1027   1.901       .  S
O1004      C1013   1.264       .  A
O1005     Ni1009   1.912       .  S
O1005     Ni1027   1.913       .  S
O1005     Ni1021   1.922       .  S
O1005      H1028   0.965       .  S
C1006      O1023   1.276       .  A
C1006      O1015   1.278       .  A
C1006      C1084   1.437       .  S
O1007     Ni1026   1.942       .  S
O1007      C1013   1.273       .  A
O1008     Ni1026   1.904       .  S
O1008      C1010   1.267       .  A
Ni1009     O1012   1.933       .  S
Ni1009     O1014   1.906       .  S
C1010      O1020   1.273       .  A
C1010      C1106   1.436       .  S
O1011     Ni1027   1.910       .  S
O1011      C1401   1.268       .  A
O1012      C1401   1.272       .  A
C1013      C1087   1.438       .  S
O1014      C1016   1.268       .  A
O1015     Ni1026   1.927       .  S
C1016      O1022   1.275       .  A
C1017      O1395   1.268       .  A
C1017      O1396   1.272   1_545  A
C1017      C1085   1.436       .  S
H1018      O1019   0.966       .  S
O1019     Ni1027   1.902       .  S
O1019     Ni1021   1.903       .  S
O1019     Ni1026   1.903       .  S
O1020     Ni1021   1.933       .  S
Ni1021     O1025   1.919       .  S
Ni1021     O1023   1.923       .  S
O1022     Ni1027   1.948       .  S
C1024      O1025   1.270       .  A
C1024      C1118   1.442       .  S
O1029     Ni1035   1.924       .  S
O1029      C1050   1.270       .  A
O1030     Ni1053   1.901       .  S
O1030      C1039   1.264       .  A
O1031     Ni1035   1.914       .  S
O1031     Ni1053   1.913       .  S
O1031     Ni1047   1.923       .  S
O1031      H1054   0.966       .  S
C1032      O1049   1.276       .  A
C1032      O1041   1.278       .  A
C1032      C1102   1.437       .  S
O1033     Ni1052   1.942       .  S
O1033      C1039   1.273       .  A
O1034     Ni1052   1.903       .  S
O1034      C1036   1.266       .  A
Ni1035     O1040   1.905       .  S
C1036      O1046   1.273       .  A
C1036      C1083   1.436       .  S
O1037      C1043   1.268       .  A
O1038      C1043   1.271       .  A
C1039      C1082   1.438       .  S
O1040      C1042   1.268       .  A
O1041     Ni1052   1.928       .  S
C1042      O1048   1.275       .  A
C1042      C1086   1.437       .  S
C1043      C1103   1.437       .  S
H1044      O1045   0.966       .  S
O1045     Ni1053   1.903       .  S
O1045     Ni1047   1.904       .  S
O1045     Ni1052   1.904       .  S
O1046     Ni1047   1.934       .  S
Ni1047     O1051   1.917       .  S
Ni1047     O1049   1.922       .  S
O1048     Ni1053   1.947       .  S
C1050      O1051   1.269       .  A
C1050      C1113   1.440       .  S
O1055     Ni1061   1.926       .  S
O1055      C1076   1.270       .  A
O1056     Ni1079   1.901       .  S
O1056      C1065   1.264       .  A
O1057     Ni1061   1.912       .  S
O1057     Ni1079   1.913       .  S
O1057     Ni1073   1.921       .  S
O1057      H1080   0.966       .  S
C1058      O1075   1.276       .  A
C1058      O1067   1.278       .  A
C1058      C1092   1.437       .  S
O1059     Ni1078   1.942       .  S
O1059      C1065   1.273       .  A
O1060     Ni1078   1.904       .  S
O1060      C1062   1.267       .  A
Ni1061     O1066   1.906       .  S
C1062      O1072   1.273       .  A
C1062      C1100   1.436       .  S
O1063      C1069   1.268       .  A
O1064      C1069   1.272       .  A
C1065      C1081   1.438       .  S
O1066      C1068   1.268       .  A
O1067     Ni1078   1.928       .  S
C1068      O1074   1.275       .  A
C1068      C1481   1.438   1_545  S
C1069      C1089   1.436       .  S
H1070      O1071   0.966       .  S
O1071     Ni1079   1.902       .  S
O1071     Ni1073   1.904       .  S
O1071     Ni1078   1.904       .  S
O1072     Ni1073   1.933       .  S
Ni1073     O1077   1.919       .  S
Ni1073     O1075   1.922       .  S
O1074     Ni1079   1.948       .  S
C1076      O1077   1.270       .  A
C1076      C1111   1.442       .  S
C1083      C1084   1.207       .  T
C1085      C1086   1.207       .  T
C1087      C1472   1.208   1_556  T
C1088      C1471   1.208   1_544  T
C1089      C1090   1.207       .  T
C1091      C1092   1.207       .  T
C1093      C1094   1.207       .  T
C1095      C1096   1.207       .  T
C1097      C1452   1.438       .  S
C1097      C1098   1.207       .  T
C1099      C1100   1.207       .  T
C1101      C1102   1.207       .  T
C1103      C1104   1.207       .  T
C1104      C1322   1.437   1_545  S
C1105      C1106   1.207       .  T
C1107      C1108   1.207       .  T
C1109      C1110   1.207   1_556  T
C1111      C1112   1.210       .  T
C1113      C1114   1.209       .  T
C1117      C1118   1.210       .  T
C1119      C1120   1.207       .  T
C1121      C1122   1.207       .  T
C1123      C1124   1.209       .  T
C1125      C1510   1.208       .  T
C1126      C1509   1.208   1_545  T
C1127      C1128   1.207       .  T
C1129      C1130   1.207       .  T
C1131      C1132   1.209       .  T
C1133      C1134   1.207       .  T
C1134      C1290   1.438       .  S
C1135      C1136   1.207       .  T
C1137      C1138   1.207       .  T
C1139      C1140   1.207       .  T
C1141      C1142   1.210       .  T
C1143      C1144   1.207       .  T
C1145      C1160   1.437   1_545  S
C1145      C1146   1.207       .  T
C1147      C1148   1.207       .  T
C1149      C1150   1.207       .  T
C1151      C1152   1.207       .  T
O1153     Ni1159   1.941       .  S
O1153      C1174   1.273       .  A
O1154     Ni1177   1.918       .  S
O1154      C1163   1.270       .  A
O1155     Ni1159   1.904       .  S
O1155     Ni1177   1.903       .  S
O1155     Ni1171   1.902       .  S
O1155      H1178   0.966       .  S
C1156      O1173   1.268       .  A
C1156      O1165   1.271       .  A
C1156      C1533   1.437       .  S
O1157     Ni1176   1.923       .  S
O1157      C1163   1.270       .  A
O1158     Ni1176   1.906       .  S
O1158      C1160   1.268       .  A
Ni1159     O1162   1.928       .  S
Ni1159     O1164   1.903       .  S
C1160      O1170   1.275       .  A
O1161     Ni1177   1.922       .  S
O1161      C1167   1.276       .  A
O1162      C1167   1.278       .  A
C1163      C1526   1.441       .  S
O1164      C1166   1.267       .  A
O1165     Ni1176   1.932       .  S
C1166      O1172   1.273       .  A
C1166      C1528   1.436       .  S
C1167      C1532   1.437       .  S
H1168      O1169   0.966       .  S
O1169     Ni1177   1.924       .  S
O1169     Ni1171   1.913       .  S
O1169     Ni1176   1.914       .  S
O1170     Ni1171   1.948       .  S
Ni1171     O1175   1.901       .  S
Ni1171     O1173   1.911       .  S
O1172     Ni1177   1.934       .  S
C1174      O1175   1.264       .  A
C1174      C1535   1.438       .  S
O1179     Ni1185   1.941       .  S
O1179      C1200   1.273       .  A
O1180     Ni1203   1.917       .  S
O1180      C1189   1.269       .  A
O1181     Ni1185   1.904       .  S
O1181     Ni1203   1.904       .  S
O1181     Ni1197   1.902       .  S
O1181      H1204   0.966       .  S
C1182      O1199   1.268       .  A
C1182      O1191   1.271       .  A
C1182      C1517   1.437       .  S
O1183     Ni1202   1.924       .  S
O1183      C1189   1.270       .  A
O1184     Ni1202   1.906       .  S
O1184      C1186   1.268       .  A
Ni1185     O1188   1.928       .  S
Ni1185     O1190   1.904       .  S
C1186      O1196   1.275       .  A
O1187     Ni1203   1.921       .  S
O1187      C1193   1.276       .  A
O1188      C1193   1.278       .  A
C1189      C1515   1.440       .  S
O1190      C1192   1.267       .  A
O1191     Ni1202   1.932       .  S
C1192      O1198   1.273       .  A
C1192      C1524   1.436       .  S
C1193      C1519   1.437       .  S
H1194      O1195   0.966       .  S
O1195     Ni1203   1.924       .  S
O1195     Ni1197   1.913       .  S
O1195     Ni1202   1.914       .  S
O1196     Ni1197   1.948       .  S
Ni1197     O1201   1.901       .  S
Ni1197     O1199   1.911       .  S
O1198     Ni1203   1.934       .  S
C1200      O1201   1.264       .  A
C1200      C1536   1.438       .  S
O1205     Ni1211   1.942       .  S
O1205      C1226   1.273       .  A
O1206     Ni1229   1.917       .  S
O1206      C1215   1.269       .  A
O1207     Ni1211   1.904       .  S
O1207     Ni1229   1.904       .  S
O1207     Ni1223   1.903       .  S
O1207      H1230   0.966       .  S
C1208      O1225   1.268       .  A
C1208      O1217   1.271       .  A
C1208      C1522   1.437       .  S
O1209     Ni1228   1.924       .  S
O1209      C1215   1.270       .  A
O1210     Ni1228   1.905       .  S
O1210      C1212   1.268       .  A
Ni1211     O1214   1.928       .  S
Ni1211     O1216   1.903       .  S
C1212      O1222   1.275       .  A
C1212      C1511   1.437       .  S
O1213     Ni1229   1.922       .  S
O1213      C1219   1.276       .  A
O1214      C1219   1.278       .  A
C1215      C1507   1.440       .  S
O1216      C1218   1.266       .  A
C1218      O1224   1.273       .  A
C1218      C1513   1.436       .  S
C1219      C1523   1.437       .  S
H1220      O1221   0.967       .  S
O1221     Ni1229   1.923       .  S
O1221     Ni1223   1.913       .  S
O1221     Ni1228   1.914       .  S
O1222     Ni1223   1.947       .  S
Ni1223     O1227   1.901       .  S
O1224     Ni1229   1.934       .  S
C1226      O1227   1.264       .  A
C1226      C1510   1.438       .  S
O1231     Ni1237   1.942       .  S
O1231      C1252   1.273       .  A
O1232     Ni1255   1.919       .  S
O1232      C1241   1.270       .  A
O1233     Ni1237   1.904       .  S
O1233     Ni1255   1.904       .  S
O1233     Ni1249   1.902       .  S
O1233      H1256   0.966       .  S
C1234      C1505   1.436       .  S
O1235     Ni1254   1.925       .  S
O1235      C1241   1.270       .  A
O1236     Ni1254   1.906       .  S
O1236      C1238   1.268       .  A
Ni1237     O1240   1.928       .  S
Ni1237     O1242   1.904       .  S
C1238      O1248   1.275       .  A
O1239     Ni1255   1.923       .  S
O1239      C1245   1.276       .  A
O1240      C1245   1.278       .  A
C1241      C1501   1.442       .  S
O1242      C1244   1.267       .  A
O1243     Ni1254   1.933       .  S
C1244      O1250   1.273       .  A
C1244      C1531   1.436       .  S
C1245      C1503   1.437       .  S
H1246      O1247   0.965       .  S
O1247     Ni1255   1.921       .  S
O1247     Ni1249   1.913       .  S
O1247     Ni1254   1.912       .  S
O1248     Ni1249   1.948       .  S
Ni1249     O1253   1.901       .  S
Ni1249     O1251   1.910   1_565  S
O1250     Ni1255   1.934       .  S
C1252      O1253   1.264       .  A
C1252      C1509   1.438       .  S
O1257     Ni1263   1.942       .  S
O1257      C1278   1.273       .  A
O1258     Ni1281   1.917       .  S
O1258      C1267   1.270       .  A
O1259     Ni1263   1.904       .  S
O1259     Ni1281   1.903       .  S
O1259     Ni1275   1.903       .  S
O1259      H1282   0.966       .  S
C1260      O1277   1.268       .  A
C1260      O1269   1.271       .  A
C1260      C1530   1.436       .  S
O1261     Ni1280   1.924       .  S
O1261      C1267   1.270       .  A
O1262     Ni1280   1.905       .  S
O1262      C1264   1.268       .  A
Ni1263     O1266   1.928       .  S
Ni1263     O1268   1.904       .  S
C1264      O1274   1.275       .  A
C1264      C1506   1.437       .  S
O1265     Ni1281   1.922       .  S
O1265      C1271   1.276       .  A
O1266      C1271   1.278       .  A
C1267      C1498   1.440       .  S
O1268      C1270   1.267       .  A
C1270      O1276   1.273       .  A
C1270      C1504   1.436       .  S
C1271      C1527   1.438       .  S
H1272      O1273   0.966       .  S
O1273     Ni1281   1.923       .  S
O1273     Ni1275   1.913       .  S
O1273     Ni1280   1.913       .  S
O1274     Ni1275   1.948       .  S
Ni1275     O1279   1.901       .  S
O1276     Ni1281   1.934       .  S
C1278      O1279   1.264       .  A
C1278      C1500   1.438       .  S
O1283     Ni1289   1.942       .  S
O1283      C1304   1.273       .  A
O1284     Ni1307   1.919       .  S
O1284      C1293   1.270       .  A
O1285     Ni1289   1.903       .  S
O1285     Ni1307   1.904       .  S
O1285     Ni1301   1.902       .  S
O1285      H1308   0.966       .  S
C1286      O1303   1.268       .  A
C1286      O1295   1.272       .  A
C1286      C1512   1.436       .  S
O1287     Ni1306   1.925       .  S
O1287      C1293   1.270       .  A
O1288     Ni1306   1.906       .  S
O1288      C1290   1.268       .  A
Ni1289     O1292   1.928       .  S
Ni1289     O1294   1.904       .  S
C1290      O1300   1.275       .  A
O1291     Ni1307   1.923       .  S
O1291      C1297   1.276       .  A
O1292      C1297   1.278       .  A
C1293      C1496   1.442       .  S
O1294      C1296   1.267       .  A
C1296      O1302   1.273       .  A
C1296      C1520   1.436       .  S
C1297      C1514   1.437       .  S
H1298      O1299   0.966       .  S
O1299     Ni1307   1.922       .  S
O1299     Ni1301   1.913       .  S
O1299     Ni1306   1.912       .  S
O1300     Ni1301   1.948       .  S
Ni1301     O1305   1.901       .  S
O1302     Ni1307   1.934       .  S
C1304      O1305   1.264       .  A
C1304      C1499   1.438       .  S
O1309     Ni1315   1.924       .  S
O1309      C1330   1.270       .  A
O1310     Ni1333   1.901       .  S
O1310      C1319   1.264       .  A
O1311     Ni1315   1.914       .  S
O1311     Ni1333   1.913       .  S
O1311     Ni1327   1.924       .  S
O1311      H1334   0.966       .  S
C1312      O1329   1.276       .  A
C1312      O1321   1.278       .  A
C1312      C1489   1.437       .  S
O1313     Ni1332   1.941       .  S
O1313      C1319   1.273       .  A
O1314     Ni1332   1.904       .  S
O1314      C1316   1.267       .  A
Ni1315     O1318   1.933       .  S
Ni1315     O1320   1.906       .  S
C1316      O1326   1.273       .  A
C1316      C1485   1.436       .  S
O1317     Ni1333   1.911       .  S
O1317      C1323   1.268       .  A
O1318      C1323   1.271       .  A
C1319      C1493   1.438       .  S
O1320      C1322   1.268       .  A
O1321     Ni1332   1.927       .  S
C1322      O1328   1.275       .  A
C1323      C1491   1.437       .  S
H1324      O1325   0.966       .  S
O1325     Ni1333   1.902       .  S
O1325     Ni1327   1.904       .  S
O1325     Ni1332   1.904       .  S
O1326     Ni1327   1.934       .  S
Ni1327     O1331   1.917       .  S
Ni1327     O1329   1.921       .  S
O1328     Ni1333   1.949       .  S
C1330      O1331   1.269       .  A
C1330      C1525   1.441       .  S
O1335     Ni1341   1.924       .  S
O1335      C1356   1.270       .  A
O1336     Ni1359   1.901       .  S
O1336      C1345   1.264       .  A
O1337     Ni1341   1.914       .  S
O1337     Ni1359   1.914       .  S
O1337     Ni1353   1.924       .  S
O1337      H1360   0.966       .  S
C1338      O1355   1.276       .  A
C1338      O1347   1.278       .  A
C1338      C1483   1.437       .  S
O1339     Ni1358   1.941       .  S
O1339      C1345   1.273       .  A
O1340     Ni1358   1.903       .  S
O1340      C1342   1.266       .  A
Ni1341     O1344   1.932       .  S
Ni1341     O1346   1.906       .  S
C1342      O1352   1.273       .  A
C1342      C1480   1.437       .  S
O1343     Ni1359   1.911       .  S
O1343      C1349   1.268       .  A
O1344      C1349   1.271       .  A
C1345      C1494   1.438       .  S
O1346      C1348   1.268       .  A
O1347     Ni1358   1.928       .  S
C1348      O1354   1.275       .  A
C1349      C1482   1.437       .  S
H1350      O1351   0.966       .  S
O1351     Ni1359   1.902       .  S
O1351     Ni1353   1.903       .  S
O1351     Ni1358   1.904       .  S
O1352     Ni1353   1.935       .  S
Ni1353     O1357   1.917       .  S
Ni1353     O1355   1.922       .  S
O1354     Ni1359   1.948       .  S
C1356      O1357   1.270       .  A
C1356      C1516   1.440       .  S
O1361     Ni1367   1.924       .  S
O1361      C1382   1.270       .  A
O1362     Ni1385   1.901       .  S
O1362      C1371   1.264       .  A
O1363     Ni1367   1.913       .  S
O1363     Ni1385   1.913       .  S
O1363     Ni1379   1.922       .  S
O1363      H1386   0.966       .  S
C1364      O1381   1.276       .  A
C1364      O1373   1.278       .  A
C1364      C1479   1.438       .  S
O1365     Ni1384   1.942       .  S
O1365      C1371   1.273       .  A
O1366     Ni1384   1.903       .  S
O1366      C1368   1.266       .  A
Ni1367     O1372   1.905       .  S
C1368      O1378   1.273       .  A
C1368      C1475   1.436       .  S
O1369      C1375   1.268       .  A
O1370      C1375   1.271       .  A
C1371      C1472   1.438       .  S
O1372      C1374   1.268       .  A
O1373     Ni1384   1.928       .  S
C1374      O1380   1.275       .  A
C1374      C1474   1.437       .  S
C1375      C1478   1.436       .  S
H1376      O1377   0.966       .  S
O1377     Ni1385   1.902       .  S
O1377     Ni1379   1.903       .  S
O1377     Ni1384   1.904       .  S
O1378     Ni1379   1.934       .  S
Ni1379     O1383   1.917       .  S
Ni1379     O1381   1.922       .  S
O1380     Ni1385   1.948       .  S
C1382      O1383   1.269       .  A
C1382      C1508   1.440       .  S
O1387     Ni1393   1.925       .  S
O1387      C1408   1.270       .  A
O1388     Ni1411   1.901       .  S
O1388      C1397   1.264       .  A
O1389     Ni1393   1.912       .  S
O1389     Ni1411   1.913       .  S
O1389     Ni1405   1.922       .  S
O1389      H1412   0.965       .  S
C1390      O1407   1.276       .  A
C1390      O1399   1.278       .  A
C1390      C1468   1.437       .  S
O1391     Ni1410   1.942       .  S
O1391      C1397   1.273       .  A
O1392     Ni1410   1.904       .  S
O1392      C1394   1.267       .  A
Ni1393     O1396   1.933       .  S
Ni1393     O1398   1.906       .  S
C1394      O1404   1.273       .  A
C1394      C1490   1.436       .  S
O1395     Ni1411   1.910   1_545  S
C1397      C1471   1.438       .  S
O1398      C1400   1.268       .  A
O1399     Ni1410   1.927       .  S
C1400      O1406   1.275       .  A
C1401      C1469   1.436       .  S
H1402      O1403   0.966       .  S
O1403     Ni1411   1.902       .  S
O1403     Ni1405   1.903       .  S
O1403     Ni1410   1.903       .  S
O1404     Ni1405   1.933       .  S
Ni1405     O1409   1.919       .  S
Ni1405     O1407   1.923       .  S
O1406     Ni1411   1.948       .  S
C1408      O1409   1.270       .  A
C1408      C1502   1.442       .  S
O1413     Ni1419   1.924       .  S
O1413      C1434   1.270       .  A
O1414     Ni1437   1.901       .  S
O1414      C1423   1.264       .  A
O1415     Ni1419   1.914       .  S
O1415     Ni1437   1.913       .  S
O1415     Ni1431   1.923       .  S
O1415      H1438   0.966       .  S
C1416      O1433   1.276       .  A
C1416      O1425   1.278       .  A
C1416      C1486   1.437       .  S
O1417     Ni1436   1.942       .  S
O1417      C1423   1.273       .  A
O1418     Ni1436   1.903       .  S
O1418      C1420   1.266       .  A
Ni1419     O1424   1.905       .  S
C1420      O1430   1.273       .  A
C1420      C1467   1.436       .  S
O1421      C1427   1.268       .  A
O1422      C1427   1.271       .  A
C1423      C1466   1.438       .  S
O1424      C1426   1.268       .  A
O1425     Ni1436   1.928       .  S
C1426      O1432   1.275       .  A
C1426      C1470   1.437       .  S
C1427      C1487   1.437       .  S
H1428      O1429   0.966       .  S
O1429     Ni1437   1.903       .  S
O1429     Ni1431   1.904       .  S
O1429     Ni1436   1.904       .  S
O1430     Ni1431   1.934       .  S
Ni1431     O1435   1.917       .  S
Ni1431     O1433   1.922       .  S
O1432     Ni1437   1.947       .  S
C1434      O1435   1.269       .  A
C1434      C1497   1.440       .  S
O1439     Ni1445   1.926       .  S
O1439      C1460   1.270       .  A
O1440     Ni1463   1.901       .  S
O1440      C1449   1.264       .  A
O1441     Ni1445   1.912       .  S
O1441     Ni1463   1.913       .  S
O1441     Ni1457   1.921       .  S
O1441      H1464   0.966       .  S
C1442      O1459   1.276       .  A
C1442      O1451   1.278       .  A
C1442      C1476   1.437       .  S
O1443     Ni1462   1.942       .  S
O1443      C1449   1.273       .  A
O1444     Ni1462   1.904       .  S
O1444      C1446   1.267       .  A
Ni1445     O1450   1.906       .  S
C1446      O1456   1.273       .  A
C1446      C1484   1.436       .  S
O1447      C1453   1.268       .  A
O1448      C1453   1.272       .  A
C1449      C1465   1.438       .  S
O1450      C1452   1.268       .  A
O1451     Ni1462   1.928       .  S
C1452      O1458   1.275       .  A
C1453      C1473   1.436       .  S
H1454      O1455   0.966       .  S
O1455     Ni1463   1.902       .  S
O1455     Ni1457   1.904       .  S
O1455     Ni1462   1.904       .  S
O1456     Ni1457   1.933       .  S
Ni1457     O1461   1.919       .  S
Ni1457     O1459   1.922       .  S
O1458     Ni1463   1.948       .  S
C1460      O1461   1.270       .  A
C1460      C1495   1.442       .  S
C1467      C1468   1.207       .  T
C1469      C1470   1.207       .  T
C1473      C1474   1.207       .  T
C1475      C1476   1.207       .  T
C1477      C1478   1.207       .  T
C1479      C1480   1.207       .  T
C1481      C1482   1.207       .  T
C1483      C1484   1.207       .  T
C1485      C1486   1.207       .  T
C1487      C1488   1.207       .  T
C1489      C1490   1.207       .  T
C1491      C1492   1.207       .  T
C1493      C1494   1.207   1_556  T
C1495      C1496   1.210       .  T
C1497      C1498   1.209       .  T
C1501      C1502   1.210       .  T
C1503      C1504   1.207       .  T
C1505      C1506   1.207       .  T
C1507      C1508   1.209       .  T
C1511      C1512   1.207       .  T
C1513      C1514   1.207       .  T
C1515      C1516   1.209       .  T
C1517      C1518   1.207       .  T
C1519      C1520   1.207       .  T
C1521      C1522   1.207       .  T
C1523      C1524   1.207       .  T
C1525      C1526   1.210       .  T
C1527      C1528   1.207       .  T
C1529      C1530   1.207       .  T
C1531      C1532   1.207       .  T
C1533      C1534   1.207       .  T
C1535      C1536   1.207       .  T
