geometry optimzed in LAMMPS
_audit_creation_date              2020-12-01 
_audit_creation_method            'lammps2cif' 
_symmetry_space_group_name_H-M    'P1' 
_symmetry_Int_Tables_number       1 
_symmetry_cell_setting            triclinic 
loop_ 
_symmetry_equiv_pos_as_xyz 
  x,y,z 
_cell_length_a                    28.21163901 
_cell_length_b                    28.649495589041997 
_cell_length_c                    39.150393821562716 
_cell_angle_alpha                 89.89443801307495 
_cell_angle_beta                  90.0776003249236 
_cell_angle_gamma                 90.13127601630127 
loop_ 
_atom_site_label 
_atom_site_type_symbol 
_atom_site_fract_x 
_atom_site_fract_y 
_atom_site_fract_z 
_atom_site_charge 
O1          O  0.08738937  0.60846450  0.68472949    -0.81100
O2          O  0.07599631  0.73514476  0.55771555    -0.65800
O3          O  0.08090321  0.68967573  0.64787178    -1.12400
C4          C  0.93073210  0.62100443  0.62184669     1.05800
O5          O  0.99784227  0.74571093  0.55521445    -0.79000
O6          O  0.94226366  0.72621283  0.60869636    -0.66600
Ni7        Ni  0.13098855  0.65115912  0.66269816     1.34900
C8          C  0.95933293  0.74370439  0.63575231     0.84500
O9          O  0.13860936  0.74471158  0.60889438    -0.79500
O10         O  0.17693386  0.69292811  0.64249566    -0.89800
C11         C  0.03998120  0.75689773  0.54681292     0.84100
O12         O  0.13594008  0.61119066  0.62337109    -0.68000
O13         O  0.93745591  0.63460914  0.59109656    -0.87300
C14         C  0.13951567  0.62532650  0.59264575     0.84900
C15         C  0.17646032  0.72885455  0.62287064     1.06500
H16         H  0.03483724  0.64213403  0.58924244     0.38300
O17         O  0.02525215  0.67162421  0.59894373    -1.10000
O18         O  0.99195004  0.72359862  0.65338101    -0.66600
Ni19       Ni  0.02001393  0.66159527  0.64692682     1.26300
O20         O  0.11967543  0.66264461  0.58291113    -0.66800
O21         O  0.95816532  0.63270820  0.64620848    -0.79100
C22         C  0.05475202  0.62126683  0.70530399     0.84300
O23         O  0.02292429  0.64963548  0.69497374    -0.66300
Ni24       Ni  0.97025401  0.68909455  0.57412417     1.27400
Ni25       Ni  0.08079786  0.71047866  0.60250474     1.26100
H26         H  0.08019735  0.71661144  0.66268331     0.38800
O27         O  0.07851554  0.58944663  0.86747113    -0.81100
O28         O  0.21683634  0.59541632  0.98676978    -0.65800
O29         O  0.16444901  0.58967712  0.89802642    -1.12400
C30         C  0.12008712  0.43328869  0.92445718     1.05800
O31         O  0.23410740  0.52053181  0.99456997    -0.79000
O32         O  0.23200212  0.47317172  0.93649447    -0.66600
Ni33       Ni  0.12205264  0.63635856  0.88240824     1.34900
C34         C  0.23511171  0.48284799  0.90499462     0.84500
O35         O  0.21700206  0.65250968  0.93328802    -0.79500
O36         O  0.16496999  0.68501988  0.89638959    -0.89800
C37         C  0.24125727  0.56351382  0.00055810     0.84100
O38         O  0.08525395  0.64540180  0.92274989    -0.68000
O39         O  0.14505045  0.43826592  0.95122633    -0.87300
C40         C  0.09854124  0.64585128  0.95369724     0.84900
C41         C  0.20143758  0.68693097  0.91574893     1.06500
H42         H  0.12724281  0.53931597  0.96064513     0.38300
O43         O  0.15648902  0.53402031  0.94842725    -1.10000
O44         O  0.20265665  0.50371194  0.88773380    -0.66600
Ni45       Ni  0.14009711  0.52795955  0.90048912     1.26300
O46         O  0.13663064  0.62640302  0.96343706    -0.66800
O47         O  0.11494721  0.46567375  0.90260249    -0.79100
C48         C  0.09199245  0.56128802  0.84448669     0.84300
O49         O  0.12175541  0.52992731  0.85301356    -0.66300
Ni50       Ni  0.18714466  0.48315074  0.97124810     1.27400
Ni51       Ni  0.18850069  0.59343023  0.94257907     1.26100
H52         H  0.19109168  0.58995243  0.88253578     0.38800
O53         O  0.44728439  0.92560286  0.68507011    -0.81100
O54         O  0.46324699  0.81448078  0.55213177    -0.65800
O55         O  0.45553109  0.84709731  0.64497786    -1.12400
C56         C  0.61099783  0.91105094  0.63255270     1.05800
O57         O  0.54133359  0.80550866  0.54743269    -0.79000
O58         O  0.58719425  0.80435683  0.60585469    -0.66600
Ni59       Ni  0.40499098  0.88389068  0.66125775     1.34900
C60         C  0.57269025  0.78921039  0.63443276     0.84500
O61         O  0.39948003  0.79774253  0.60115348    -0.79500
O62         O  0.36048707  0.84317585  0.63909765    -0.89800
C63         C  0.49896903  0.79495429  0.53906521     0.84100
O64         O  0.39886551  0.92766780  0.62433412    -0.68000
O65         O  0.61014476  0.89751195  0.60142343    -0.87300
C66         C  0.39895846  0.91853060  0.59260310     0.84900
C67         C  0.36193401  0.80997356  0.61726456     1.06500
H68         H  0.50699446  0.90097017  0.59093706     0.38300
O69         O  0.51496109  0.87024539  0.59932535    -1.10000
O70         O  0.54389067  0.81182821  0.65378276    -0.66600
Ni71       Ni  0.51616845  0.87454524  0.64844518     1.26300
O72         O  0.42062728  0.88335963  0.58083980    -0.66800
O73         O  0.57725130  0.90323128  0.65307454    -0.79100
C74         C  0.47830614  0.91138707  0.70637434     0.84300
O75         O  0.50929338  0.88182473  0.69680077    -0.66300
Ni76       Ni  0.57165795  0.85306761  0.57566595     1.27400
Ni77       Ni  0.45781264  0.83244490  0.59840290     1.26100
H78         H  0.45521557  0.81823260  0.65779657     0.38800
O79         O  0.43883639  0.94842661  0.86652963    -0.81100
O80         O  0.29470649  0.95443949  0.98138912    -0.65800
O81         O  0.35015628  0.95165912  0.89324691    -1.12400
C82         C  0.38333540  0.11287939  0.90499934     1.05800
O83         O  0.27630800  0.03002179  0.98494228    -0.79000
O84         O  0.27129720  0.05917835  0.91999433    -0.66600
Ni85       Ni  0.39178462  0.90381841  0.87936280     1.34900
C86         C  0.27374443  0.04825807  0.88863247     0.84500
O87         O  0.29899836  0.89018745  0.93192058    -0.79500
O88         O  0.34533922  0.85809159  0.89113501    -0.89800
C89         C  0.27125096  0.98778512  0.99438032     0.84100
O90         O  0.42410209  0.89134878  0.92124462    -0.68000
O91         O  0.35199530  0.11191296  0.92835182    -0.87300
C92         C  0.41327658  0.89754524  0.95237439     0.84900
C93         C  0.31143644  0.85614060  0.91263245     1.06500
H94         H  0.38164707  0.01249118  0.95378873     0.38300
O95         O  0.35363943  0.01392690  0.93963975    -1.10000
O96         O  0.31198216  0.03423576  0.87403418    -0.66600
Ni97       Ni  0.37387305  0.01357077  0.89220986     1.26300
O98         O  0.37862874  0.92351788  0.96105390    -0.66800
O99         O  0.39860772  0.07598094  0.89101193    -0.79100
C100        C  0.42865283  0.97480015  0.84154094     0.84300
O101        O  0.39698000  0.00581869  0.84617787    -0.66300
Ni102      Ni  0.31684959  0.06639088  0.95501148     1.27400
Ni103      Ni  0.32495994  0.95187775  0.93758084     1.26100
H104        H  0.32360506  0.94984274  0.87769712     0.38800
O105        O  0.59837073  0.43353051  0.66494635    -0.81100
O106        O  0.70202422  0.44797379  0.52954235    -0.65800
O107        O  0.67735352  0.44387122  0.62422928    -1.12400
C108        C  0.62846417  0.60114361  0.61361649     1.05800
O109        O  0.72581736  0.52157916  0.52702247    -0.79000
O110        O  0.73757508  0.55985125  0.58722984    -0.66600
Ni111      Ni  0.64535589  0.39356189  0.64500794     1.34900
C112        C  0.74608305  0.54614341  0.61742023     0.84500
O113        O  0.72048974  0.38542892  0.57829125    -0.79500
O114        O  0.69165648  0.35208887  0.62651425    -0.89800
C115        C  0.72852043  0.47939014  0.51722244     0.84100
O116        O  0.60311894  0.37607729  0.60920240    -0.68000
O117        O  0.64982806  0.60071868  0.58489395    -0.87300
C118        C  0.60396902  0.38262258  0.57714723     0.84900
C119        C  0.71841082  0.35225947  0.60012911     1.06500
H120        H  0.62522863  0.50056749  0.56912137     0.38300
O121        O  0.65653664  0.50401949  0.57877642    -1.10000
O122        O  0.71457567  0.52788996  0.63700633    -0.66600
Ni123      Ni  0.65021263  0.50392233  0.62797898     1.26300
O124        O  0.63157355  0.41202562  0.56298992    -0.66800
O125        O  0.62336622  0.56500330  0.63197163    -0.79100
C126        C  0.61063039  0.46523376  0.68592606     0.84300
O127        O  0.63981497  0.49653880  0.67613596    -0.66300
Ni128      Ni  0.68519113  0.55734975  0.55717001     1.27400
Ni129      Ni  0.68845347  0.44445126  0.57691591     1.26100
H130        H  0.70811962  0.44448643  0.63508644     0.38800
O131        O  0.58228214  0.43774861  0.84775287    -0.81100
O132        O  0.57418151  0.31989359  0.97561740    -0.65800
O133        O  0.57663574  0.35703196  0.88341325    -1.12400
C134        C  0.41992427  0.41217048  0.90478249     1.05800
O135        O  0.49934057  0.29746149  0.97648081    -0.79000
O136        O  0.44636078  0.30584178  0.92085072    -0.66600
Ni137      Ni  0.62684615  0.39386739  0.86613905     1.34900
C138        C  0.46155925  0.29449470  0.89159757     0.84500
O139        O  0.63539129  0.30777528  0.92487118    -0.79500
O140        O  0.67251181  0.34997775  0.88374103    -0.89800
C141        C  0.54227919  0.29218341  0.98579146     0.84100
O142        O  0.64024567  0.43415065  0.90406458    -0.68000
O143        O  0.42422512  0.39584960  0.93505264    -0.87300
C144        C  0.63779136  0.42491988  0.93566001     0.84900
C145        C  0.67122795  0.31743541  0.90625010     1.06500
H146        H  0.52420296  0.40382398  0.94101216     0.38300
O147        O  0.51813110  0.37362151  0.93097857    -1.10000
O148        O  0.48972000  0.32001919  0.87374427    -0.66600
Ni149      Ni  0.51480609  0.38295023  0.88244333     1.26300
O150        O  0.61142919  0.39233258  0.94695435    -0.66800
O151        O  0.45162809  0.40822998  0.88181956    -0.79100
C152        C  0.55269908  0.42438642  0.82516657     0.84300
O153        O  0.52000752  0.39590176  0.83416791    -0.66300
Ni154      Ni  0.46487121  0.34871286  0.95483907     1.27400
Ni155      Ni  0.57673006  0.33985542  0.92949479     1.26100
H156        H  0.57652798  0.32867194  0.87009636     0.38800
O157        O  0.94936808  0.09330307  0.65652110    -0.81100
O158        O  0.80348698  0.08400931  0.53789010    -0.65800
O159        O  0.86142766  0.09012717  0.62562786    -1.12400
C160        C  0.89757560  0.93025916  0.61411830     1.05800
O161        O  0.78657740  0.00811691  0.53502126    -0.79000
O162        O  0.78409778  0.97783545  0.59976045    -0.66600
Ni163      Ni  0.90763868  0.13665312  0.63472316     1.34900
C164        C  0.78606341  0.99020241  0.63086186     0.84500
O165        O  0.80695874  0.14798383  0.58732751    -0.79500
O166        O  0.86817037  0.18342738  0.61393511    -0.89800
C167        C  0.78038418  0.05003013  0.52540161     0.84100
O168        O  0.94323233  0.12807458  0.59427649    -0.68000
O169        O  0.86712249  0.92993266  0.59011305    -0.87300
C170        C  0.92713597  0.13291181  0.56441951     0.84900
C171        C  0.82723607  0.18400929  0.59998812     1.06500
H172        H  0.89326229  0.02939294  0.56552554     0.38300
O173        O  0.86519873  0.02714701  0.57950712    -1.10000
O174        O  0.82319611  0.00743156  0.64494712    -0.66600
Ni175      Ni  0.88467990  0.02859592  0.62733698     1.26300
O176        O  0.88581007  0.11856144  0.55650127    -0.66800
O177        O  0.91010604  0.96713671  0.62928974    -0.79100
C178        C  0.93502916  0.06772617  0.68077291     0.84300
O179        O  0.90441043  0.03647205  0.67410270    -0.66300
Ni180      Ni  0.82945511  0.97359298  0.56421287     1.27400
Ni181      Ni  0.83461072  0.08781405  0.58135431     1.26100
H182        H  0.83618720  0.09377017  0.64207071     0.38800
O183        O  0.93757395  0.11245877  0.83840296    -0.81100
O184        O  0.94902952  0.21211806  0.97662370    -0.65800
O185        O  0.94305990  0.18622936  0.88245089    -1.12400
C186        C  0.09580965  0.11784854  0.89693291     1.05800
O187        O  0.02744307  0.21972618  0.98060389    -0.79000
O188        O  0.08029290  0.21689263  0.92376928    -0.66600
Ni189      Ni  0.89373189  0.15137520  0.86308852     1.34900
C190        C  0.05884865  0.24189763  0.90178707     0.84500
O191        O  0.88588192  0.23216282  0.92707721    -0.79500
O192        O  0.84851608  0.19034069  0.88613000    -0.89800
C193        C  0.98554339  0.23168842  0.98897724     0.84100
O194        O  0.88620751  0.10432172  0.89764886    -0.68000
O195        O  0.08994178  0.12191368  0.92914658    -0.87300
C196        C  0.88488064  0.11080901  0.92966394     0.84900
C197        C  0.84891771  0.22177427  0.90947464     1.06500
H198        H  0.99065628  0.12700949  0.93393380     0.38300
O199        O  0.99991845  0.15849819  0.92800768    -1.10000
O200        O  0.02871052  0.22448781  0.88069663    -0.66600
Ni201      Ni  0.00419370  0.16030656  0.87933790     1.26300
O202        O  0.90589070  0.14505917  0.94363864    -0.66800
O203        O  0.06697156  0.13500023  0.87542285    -0.79100
C204        C  0.97004602  0.12864370  0.81895998     0.84300
O205        O  0.99992459  0.15826375  0.83061776    -0.66300
Ni206      Ni  0.05582573  0.17016645  0.95375945     1.27400
Ni207      Ni  0.94381550  0.19711380  0.92951585     1.26100
H208        H  0.94293973  0.21615461  0.87100855     0.38800
O209        O  0.79847266  0.52076634  0.03585128    -0.81100
O210        O  0.90116264  0.49802018  0.17816230    -0.65800
O211        O  0.87546062  0.50239618  0.08139709    -1.12400
C212        C  0.83021483  0.34684828  0.10614361     1.05800
O213        O  0.94872386  0.44295592  0.16085533    -0.79000
O214        O  0.94624361  0.38956440  0.10373134    -0.66600
Ni215      Ni  0.84768919  0.55565986  0.05960941     1.34900
C216        C  0.93344800  0.38843248  0.07270069     0.84500
O217        O  0.90574356  0.56865935  0.13291638    -0.79500
O218        O  0.89270530  0.59777714  0.08068196    -0.89800
C219        C  0.93386107  0.46839232  0.18499917     0.84100
O220        O  0.80246960  0.56760651  0.09428967    -0.68000
O221        O  0.86580690  0.34744266  0.12649189    -0.87300
C222        C  0.79110611  0.54752965  0.12207052     0.84900
C223        C  0.90738566  0.60181724  0.11135699     1.06500
H224        H  0.83757783  0.43863563  0.14249206     0.38300
O225        O  0.86521788  0.44178141  0.12810925    -1.10000
O226        O  0.89682008  0.40998782  0.06219834    -0.66600
Ni227      Ni  0.84398619  0.44225296  0.08297208     1.26300
O228        O  0.81978047  0.52172695  0.13930496    -0.66800
O229        O  0.81573313  0.38217279  0.08899273    -0.79100
C230        C  0.79142650  0.47844549  0.02721377     0.84300
O231        O  0.81757772  0.44558661  0.03804682    -0.66300
Ni232      Ni  0.90743899  0.39566964  0.14327954     1.27400
Ni233      Ni  0.88604140  0.50446782  0.13014627     1.26100
H234        H  0.90604905  0.49808572  0.07077500     0.38800
O235        O  0.03548229  0.29453549  0.47185405    -0.81100
O236        O  0.00863831  0.39553753  0.33524649    -0.65800
O237        O  0.00687874  0.37110800  0.43098940    -1.12400
C238        C  0.85720834  0.31306769  0.40489781     1.05800
O239        O  0.94547484  0.43742411  0.34793146    -0.79000
O240        O  0.89525092  0.43079812  0.40808346    -0.66600
Ni241      Ni  0.06190623  0.35293224  0.45510852     1.34900
C242        C  0.89000786  0.41446936  0.43805079     0.84500
O243        O  0.07533068  0.40842200  0.38391007    -0.79500
O244        O  0.09328069  0.40875312  0.43955235    -0.89800
C245        C  0.97682027  0.42505652  0.32634564     0.84100
O246        O  0.09016133  0.31987530  0.41872999    -0.68000
O247        O  0.85571693  0.34990621  0.38618974    -0.87300
C248        C  0.07070627  0.29925084  0.39375477     0.84900
C249        C  0.10155618  0.42112308  0.40875810     1.06500
H250        H  0.95141059  0.32838306  0.36663555     0.38300
O251        O  0.95113056  0.35476736  0.38196949    -1.10000
O252        O  0.91215993  0.37834130  0.44756438    -0.66600
Ni253      Ni  0.95188488  0.33207626  0.42676592     1.26300
O254        O  0.03790233  0.31879564  0.37608419    -0.66800
O255        O  0.89490367  0.29763603  0.41929130    -0.79100
C256        C  0.99365176  0.28253256  0.48046890     0.84300
O257        O  0.95730947  0.30507720  0.47096070    -0.66300
Ni258      Ni  0.90131300  0.39349084  0.36773352     1.27400
Ni259      Ni  0.01226084  0.38179840  0.38305633     1.26100
H260        H  0.99713008  0.40028793  0.44104506     0.38800
O261        O  0.73930456  0.00359033  0.03515393    -0.81100
O262        O  0.62456902  0.03234879  0.17653638    -0.65800
O263        O  0.66694751  0.02492017  0.08296037    -1.12400
C264        C  0.71899795  0.17865957  0.11140762     1.05800
O265        O  0.58665310  0.09260848  0.15685071    -0.79000
O266        O  0.60405031  0.14790818  0.10204434    -0.66600
Ni267      Ni  0.69962894  0.97030579  0.06710306     1.34900
C268        C  0.61735841  0.14337800  0.07130236     0.84500
O269        O  0.61574182  0.96600578  0.12945308    -0.79500
O270        O  0.66544681  0.92719126  0.09612131    -0.89800
C271        C  0.59580837  0.06574643  0.18169497     0.84100
O272        O  0.74712338  0.97786539  0.10035399    -0.68000
O273        O  0.68386653  0.17851021  0.13183560    -0.87300
C274        C  0.74420657  0.98427745  0.13230882     0.84900
C275        C  0.63177877  0.92825771  0.11766243     1.06500
H276        H  0.70113739  0.08432639  0.14706727     0.38300
O277        O  0.67514834  0.08486325  0.13084272    -1.10000
O278        O  0.65143614  0.11668957  0.06302483    -0.66600
Ni279      Ni  0.70137304  0.08377617  0.08692490     1.26300
O280        O  0.70616725  0.99779748  0.14752694    -0.66800
O281        O  0.73192351  0.14310659  0.09383676    -0.79100
C282        C  0.75033122  0.04559384  0.02840706     0.84300
O283        O  0.73257270  0.08031697  0.04378460    -0.66300
Ni284      Ni  0.63566918  0.13491206  0.14403914     1.27400
Ni285      Ni  0.64642115  0.02524069  0.13019131     1.26100
H286        H  0.63937222  0.02927488  0.06858411     0.38800
O287        O  0.49934074  0.23186168  0.47459628    -0.81100
O288        O  0.52446298  0.15697037  0.32937368    -0.65800
O289        O  0.52504730  0.16288194  0.42659240    -1.12400
C290        C  0.67543110  0.22595173  0.40654090     1.05800
O291        O  0.58792249  0.11316262  0.33764305    -0.79000
O292        O  0.64168376  0.10875166  0.39574229    -0.66600
Ni293      Ni  0.47011683  0.17908158  0.45159343     1.34900
C294        C  0.64239793  0.11499914  0.42776020     0.84500
O295        O  0.45787062  0.13541091  0.37547932    -0.79500
O296        O  0.43605479  0.12840854  0.43025503    -0.89800
C297        C  0.55523870  0.12831369  0.31806917     0.84100
O298        O  0.44472998  0.22177025  0.41931123    -0.68000
O299        O  0.67602321  0.19529336  0.38268517    -0.87300
C300        C  0.46404112  0.24371348  0.39478206     0.84900
C301        C  0.42995543  0.12025482  0.39848109     1.06500
H302        H  0.58137358  0.21818784  0.36872404     0.38300
O303        O  0.58174165  0.18845180  0.38041744    -1.10000
O304        O  0.61948303  0.14799386  0.44185250    -0.66600
Ni305      Ni  0.58148575  0.20029194  0.42752327     1.26300
O306        O  0.49576200  0.22512857  0.37587325    -0.66800
O307        O  0.63911792  0.23532869  0.42485198    -0.79100
C308        C  0.54121426  0.23842438  0.48584795     0.84300
O309        O  0.57643186  0.21567259  0.47467699    -0.66300
Ni310      Ni  0.63133708  0.15441988  0.36080500     1.27400
Ni311      Ni  0.52071226  0.16161224  0.37797066     1.26100
H312        H  0.53327243  0.13167889  0.43384871     0.38800
O313        O  0.53064653  0.74691634  0.05208657    -0.81100
O314        O  0.51225436  0.64316946  0.19254636    -0.65800
O315        O  0.50819938  0.66998019  0.09625021    -1.12400
C316        C  0.35852800  0.72750075  0.12547096     1.05800
O317        O  0.44673017  0.60375108  0.18246258    -0.79000
O318        O  0.39465128  0.60921875  0.12369302    -0.66600
Ni319      Ni  0.56205755  0.69236643  0.07160200     1.34900
C320        C  0.39090544  0.62272023  0.09298185     0.84500
O321        O  0.57673269  0.62972208  0.14236400    -0.79500
O322        O  0.59953430  0.64078479  0.08816538    -0.89800
C323        C  0.47928036  0.61609861  0.20317148     0.84100
O324        O  0.58585130  0.73154854  0.10661489    -0.68000
O325        O  0.35744728  0.69150049  0.14489581    -0.87300
C326        C  0.56994794  0.74360702  0.13556029     0.84900
C327        C  0.60533310  0.62273147  0.11770523     1.06500
H328        H  0.45514623  0.71232572  0.16130121     0.38300
O329        O  0.45360417  0.68545997  0.14645202    -1.10000
O330        O  0.41251794  0.65893562  0.08232061    -0.66600
Ni331      Ni  0.45197306  0.70734961  0.10119569     1.26300
O332        O  0.54103492  0.71896170  0.15321984    -0.66800
O333        O  0.39522851  0.74155778  0.10928908    -0.79100
C334        C  0.48779816  0.75595385  0.04412636     0.84300
O335        O  0.45345938  0.73255805  0.05613894    -0.66300
Ni336      Ni  0.40328701  0.64812037  0.16287385     1.27400
Ni337      Ni  0.51432052  0.65742245  0.14437568     1.26100
H338        H  0.49932986  0.64089776  0.08551320     0.38800
O339        O  0.30066533  0.51837653  0.49908717    -0.81100
O340        O  0.40115521  0.53273231  0.35114499    -0.65800
O341        O  0.37132362  0.53409323  0.44777260    -1.12400
C342        C  0.31687348  0.68455396  0.41466156     1.05800
O343        O  0.44339248  0.59359428  0.36529035    -0.79000
O344        O  0.43503559  0.65215365  0.41926636    -0.66600
Ni345      Ni  0.34214031  0.48186096  0.47061109     1.34900
C346        C  0.42450705  0.65140159  0.45074801     0.84500
O347        O  0.40936349  0.46649448  0.39916286    -0.79500
O348        O  0.37785131  0.43595913  0.44617868    -0.89800
C349        C  0.43114636  0.56421041  0.34266473     0.84100
O350        O  0.29268197  0.47951546  0.43839715    -0.68000
O351        O  0.35189299  0.68413953  0.39387406    -0.87300
C352        C  0.28701817  0.49098842  0.40730684     0.84900
C353        C  0.40070509  0.43192828  0.41852127     1.06500
H354        H  0.33152986  0.58975084  0.38330353     0.38300
O355        O  0.35921152  0.59013532  0.39787836    -1.10000
O356        O  0.38906077  0.62849819  0.46203909    -0.66600
Ni357      Ni  0.33705393  0.59280367  0.44279843     1.26300
O358        O  0.32046595  0.50645541  0.38802143    -0.66800
O359        O  0.30534232  0.65049524  0.43412746    -0.79100
C360        C  0.29071664  0.56094006  0.50408147     0.84300
O361        O  0.31006748  0.59384388  0.48745721    -0.66300
Ni362      Ni  0.39752006  0.63823372  0.38004424     1.27400
Ni363      Ni  0.38462838  0.52909534  0.39905133     1.26100
H364        H  0.40096353  0.54012228  0.45929505     0.38800
O365        O  0.99709939  0.79881996  0.05485547    -0.81100
O366        O  0.02414859  0.88524001  0.19869392    -0.65800
O367        O  0.02179011  0.87015619  0.10147627    -1.12400
C368        C  0.17620200  0.81581614  0.12327375     1.05800
O369        O  0.08440588  0.93093250  0.18621215    -0.79000
O370        O  0.13601129  0.93226567  0.12711681    -0.66600
Ni371      Ni  0.96629201  0.85017223  0.07793138     1.34900
C372        C  0.13723846  0.92229493  0.09559870     0.84500
O373        O  0.95470463  0.89935174  0.15287936    -0.79500
O374        O  0.92900450  0.89894028  0.09881735    -0.89800
C375        C  0.05477555  0.91558477  0.20810282     0.84100
O376        O  0.94626423  0.80643997  0.11136546    -0.68000
O377        O  0.17561978  0.84936781  0.14493394    -0.87300
C378        C  0.96697026  0.78868586  0.13707227     0.84900
C379        C  0.92383162  0.90921707  0.13027920     1.06500
H380        H  0.08232795  0.82350257  0.16137307     0.38300
O381        O  0.08097041  0.85180947  0.14805407    -1.10000
O382        O  0.11574788  0.88675110  0.08364174    -0.66600
Ni383      Ni  0.08013023  0.83477936  0.10186720     1.26300
O384        O  0.99689215  0.81131375  0.15541572    -0.66800
O385        O  0.13974913  0.80288495  0.10604781    -0.79100
C386        C  0.03918269  0.79055275  0.04495760     0.84300
O387        O  0.07481473  0.81315441  0.05597123    -0.66300
Ni388      Ni  0.12942264  0.89012281  0.16486837     1.27400
Ni389      Ni  0.01875533  0.87591229  0.15022688     1.26100
H390        H  0.02873767  0.90048254  0.09275030     0.38800
O391        O  0.24887507  0.03028211  0.49207955    -0.81100
O392        O  0.13058225  0.00860814  0.35308923    -0.65800
O393        O  0.16918835  0.01307951  0.44796525    -1.12400
C394        C  0.21680755  0.85887312  0.42012851     1.05800
O395        O  0.08935892  0.94859262  0.36972089    -0.79000
O396        O  0.09944533  0.89696037  0.42645120    -0.66600
Ni397      Ni  0.20280140  0.06582480  0.46635617     1.34900
C398        C  0.11179168  0.89915369  0.45752855     0.84500
O399        O  0.12671589  0.07740905  0.39905637    -0.79500
O400        O  0.16209092  0.10986940  0.44403914    -0.89800
C401        C  0.10128556  0.97619849  0.34589773     0.84100
O402        O  0.24702504  0.06830260  0.43003603    -0.68000
O403        O  0.18019223  0.85909989  0.40077286    -0.87300
C404        C  0.24751784  0.05512503  0.39907748     0.84900
C405        C  0.13687476  0.11270752  0.41725632     1.06500
H406        H  0.20235102  0.95222860  0.38473570     0.38300
O407        O  0.17570712  0.95324958  0.40021111    -1.10000
O408        O  0.14891702  0.92091044  0.46701130    -0.66600
Ni409      Ni  0.20087374  0.95312121  0.44472419     1.26300
O410        O  0.21234061  0.03595878  0.38396392    -0.66800
O411        O  0.23038257  0.89379150  0.43795324    -0.79100
C412        C  0.25445226  0.98812327  0.50116962     0.84300
O413        O  0.22993242  0.95503611  0.48887521    -0.66300
Ni414      Ni  0.13513231  0.90476852  0.38576754     1.27400
Ni415      Ni  0.15069721  0.01462116  0.40000794     1.26100
H416        H  0.14072427  0.00931249  0.46135860     0.38800
C417        C  0.08346720  0.97605812  0.24851703    -0.06000
C418        C  0.05824489  0.93394962  0.24383874    -0.00100
C419        C  0.04280093  0.90907923  0.27312922    -0.08600
C420        C  0.05510235  0.92636398  0.30567784    -0.06000
C421        C  0.08381785  0.96641195  0.31031791    -0.00100
C422        C  0.09739531  0.99240118  0.28097087    -0.08500
C423        C  0.12765634  0.03630080  0.28319437     0.61800
H424        H  0.09429408  0.99540549  0.22607344     0.12500
H425        H  0.04389242  0.90695679  0.32797612     0.12500
C426        C  0.01553851  0.86336839  0.27045941     0.62100
F427        F  0.13416287  0.05706082  0.25157393    -0.23100
F428        F  0.17201797  0.02535840  0.29596246    -0.20400
F429        F  0.10592638  0.06861073  0.30416522    -0.20100
F430        F  0.04205020  0.83098981  0.25262043    -0.20200
F431        F  0.97291786  0.87080283  0.25384614    -0.20500
F432        F  0.00548783  0.84443035  0.30220827    -0.23200
C433        C  0.21779504  0.77323201  0.41831834    -0.06000
C434        C  0.24387484  0.81489190  0.42153879    -0.00100
C435        C  0.29410798  0.81325780  0.42272286    -0.08600
C436        C  0.31621722  0.76955247  0.42081108    -0.06000
C437        C  0.29001254  0.72819236  0.41723143    -0.00100
C438        C  0.24002214  0.72978334  0.41538905    -0.08500
C439        C  0.21038355  0.68647872  0.40845786     0.61800
H440        H  0.17946706  0.77508462  0.41743470     0.12500
H441        H  0.35451040  0.76721597  0.42213657     0.12500
C442        C  0.32454478  0.85695980  0.42518136     0.62100
F443        F  0.16294930  0.69705944  0.40371765    -0.23100
F444        F  0.21358181  0.65608779  0.43566307    -0.20400
F445        F  0.22649647  0.66455946  0.37925896    -0.20100
F446        F  0.31814039  0.87744761  0.45674479    -0.20200
F447        F  0.31222118  0.88816945  0.39967628    -0.20500
F448        F  0.37233827  0.84716442  0.42162889    -0.23200
C449        C  0.27434710  0.72601466  0.11016552    -0.06000
C450        C  0.31370305  0.75233624  0.12072848    -0.00100
C451        C  0.30855894  0.79989018  0.12883323    -0.08600
C452        C  0.26326267  0.81941487  0.12684332    -0.06000
C453        C  0.22282494  0.79268644  0.11847492    -0.00100
C454        C  0.22860775  0.74527196  0.10884447    -0.08500
C455        C  0.18724925  0.71449707  0.09838596     0.61800
H456        H  0.27978345  0.68964167  0.10372111     0.12500
H457        H  0.25901024  0.85582722  0.13318538     0.12500
C458        C  0.34991002  0.82903653  0.14177043     0.62100
F459        F  0.20118422  0.66905750  0.09186524    -0.23100
F460        F  0.16679047  0.73195210  0.06892464    -0.20400
F461        F  0.15415767  0.71318814  0.12434256    -0.20100
F462        F  0.38461304  0.83191355  0.11704117    -0.20200
F463        F  0.36867888  0.80864008  0.17083088    -0.20500
F464        F  0.33633889  0.87407536  0.14992506    -0.23200
C465        C  0.45079334  0.55715820  0.24541568    -0.06000
C466        C  0.47627017  0.59884120  0.23934352    -0.00100
C467        C  0.49190375  0.62520751  0.26784841    -0.08600
C468        C  0.47887885  0.61034198  0.30090672    -0.06000
C469        C  0.44963473  0.57099207  0.30687998    -0.00100
C470        C  0.43705293  0.54270135  0.27852580    -0.08500
C471        C  0.40826899  0.49817675  0.28263604     0.61800
H472        H  0.43971237  0.53672258  0.22357641     0.12500
H473        H  0.48990078  0.63123970  0.32248471     0.12500
C474        C  0.51974648  0.67038803  0.26371394     0.62100
F475        F  0.40442477  0.47379849  0.25226289    -0.23100
F476        F  0.36293429  0.50891070  0.29344208    -0.20400
F477        F  0.42989514  0.46911859  0.30621275    -0.20100
F478        F  0.49353017  0.70206058  0.24485957    -0.20200
F479        F  0.56217974  0.66155655  0.24733613    -0.20500
F480        F  0.53026601  0.69089881  0.29482579    -0.23200
C481        C  0.32981972  0.03251968  0.39687584    -0.06000
C482        C  0.29390860  0.05984585  0.38217836    -0.00100
C483        C  0.30673107  0.10058631  0.36384026    -0.08600
C484        C  0.35337087  0.11770175  0.36722091    -0.06000
C485        C  0.38684709  0.09458996  0.38778541    -0.00100
C486        C  0.37641626  0.04933239  0.39996548    -0.08500
C487        C  0.41350349  0.01991603  0.41770315     0.61800
H488        H  0.31986263  0.00057311  0.40996400     0.12500
H489        H  0.36264362  0.15092051  0.35567794     0.12500
C490        C  0.27283130  0.12687902  0.34076009     0.62100
F491        F  0.39899477  0.97384676  0.42028187    -0.23100
F492        F  0.42167538  0.03708903  0.45015097    -0.20400
F493        F  0.45531134  0.02087543  0.39928381    -0.20100
F494        F  0.22761270  0.10821126  0.34111432    -0.20200
F495        F  0.28957065  0.12498383  0.30760594    -0.20500
F496        F  0.27046843  0.17317340  0.35052330    -0.23200
C497        C  0.40041194  0.30122216  0.39957214    -0.06000
C498        C  0.44773840  0.29294701  0.39047811    -0.00100
C499        C  0.47907040  0.33166835  0.38759715    -0.08600
C500        C  0.46178957  0.37701876  0.39498325    -0.06000
C501        C  0.41586040  0.38406028  0.40804893    -0.00100
C502        C  0.38467011  0.34506033  0.41063797    -0.08500
C503        C  0.33586276  0.34805707  0.42709225     0.61800
H504        H  0.37687238  0.27141840  0.40156553     0.12500
H505        H  0.48509502  0.40696760  0.39290895     0.12500
C506        C  0.53100182  0.32493823  0.37901574     0.62100
F507        F  0.31017500  0.30712910  0.42333392    -0.23100
F508        F  0.34082737  0.35617064  0.46172491    -0.20400
F509        F  0.30977923  0.38352406  0.41252108    -0.20100
F510        F  0.53508331  0.30378324  0.34744270    -0.20200
F511        F  0.55220559  0.29721436  0.40360646    -0.20500
F512        F  0.55529378  0.36695722  0.37781814    -0.23200
C513        C  0.79433663  0.92335548  0.15510412    -0.06000
C514        C  0.78797880  0.97149229  0.15081324    -0.00100
C515        C  0.82860274  0.00028281  0.14738965    -0.08600
C516        C  0.87336480  0.97935477  0.14196950    -0.06000
C517        C  0.87830935  0.93060682  0.14131251    -0.00100
C518        C  0.83883285  0.90232074  0.15005148    -0.08500
C519        C  0.84304471  0.84970978  0.15137065     0.61800
H520        H  0.76303394  0.90164889  0.15771380     0.12500
H521        H  0.90430475  0.00078381  0.13710621     0.12500
C522        C  0.82387694  0.05288729  0.14952158     0.62100
F523        F  0.80146241  0.82859638  0.16211065    -0.23100
F524        F  0.87864257  0.83734194  0.17394030    -0.20400
F525        F  0.85357175  0.83320798  0.11912062    -0.20100
F526        F  0.80793846  0.06467468  0.18175320    -0.20200
F527        F  0.79175348  0.06901673  0.12566097    -0.20500
F528        F  0.86675448  0.07520646  0.14396030    -0.23200
C529        C  0.64650079  0.84871752  0.13894856    -0.06000
C530        C  0.61303993  0.88305946  0.13056413    -0.00100
C531        C  0.56399334  0.87212155  0.13265179    -0.08600
C532        C  0.55057061  0.82608313  0.14146546    -0.06000
C533        C  0.58444410  0.79075067  0.14635298    -0.00100
C534        C  0.63310293  0.80277924  0.14669176    -0.08500
C535        C  0.67225769  0.76728305  0.15184805     0.61800
H536        H  0.68394229  0.85730849  0.13785318     0.12500
H537        H  0.51355261  0.81599588  0.14041612     0.12500
C538        C  0.52625222  0.90717530  0.12226516     0.62100
F539        F  0.70408778  0.78372762  0.17590794    -0.23100
F540        F  0.69583281  0.76078828  0.12126866    -0.20400
F541        F  0.65530411  0.72464817  0.16317794    -0.20100
F542        F  0.53518686  0.92321297  0.08953714    -0.20200
F543        F  0.52635394  0.94443542  0.14461683    -0.20500
F544        F  0.48128136  0.88769198  0.12250223    -0.23200
C545        C  0.56205893  0.06411124  0.27637106    -0.06000
C546        C  0.55507341  0.11199770  0.28228789    -0.00100
C547        C  0.55675805  0.14359932  0.25460286    -0.08600
C548        C  0.56828177  0.12634096  0.22207496    -0.06000
C549        C  0.57841853  0.07875261  0.21635064    -0.00100
C550        C  0.57320497  0.04670067  0.24371701    -0.08500
C551        C  0.57971107  0.99458677  0.23889740     0.61800
H552        H  0.56066271  0.04050451  0.29800262     0.12500
H553        H  0.57151791  0.15068327  0.20103056     0.12500
C554        C  0.54897396  0.19561875  0.25971661     0.62100
F555        F  0.56310349  0.96956492  0.26672744    -0.23100
F556        F  0.62729014  0.98461195  0.23483419    -0.20400
F557        F  0.55482858  0.97974860  0.21044375    -0.20100
F558        F  0.58121040  0.21286066  0.28322496    -0.20200
F559        F  0.50345186  0.20317873  0.27150085    -0.20500
F560        F  0.55450633  0.22054787  0.22965778    -0.23200
C561        C  0.13577159  0.24322397  0.39800553    -0.06000
C562        C  0.08864677  0.25085935  0.38781191    -0.00100
C563        C  0.05887352  0.21151693  0.38258711    -0.08600
C564        C  0.07611940  0.16649566  0.39127776    -0.06000
C565        C  0.12125445  0.16019795  0.40610304    -0.00100
C566        C  0.15214710  0.19940560  0.40863191    -0.08500
C567        C  0.20191659  0.19633250  0.42366504     0.61800
H568        H  0.15869279  0.27334188  0.40096284     0.12500
H569        H  0.05350531  0.13619486  0.38824604     0.12500
C570        C  0.00899631  0.21713845  0.36888059     0.62100
F571        F  0.22785153  0.23674315  0.41820919    -0.23100
F572        F  0.22646069  0.16012818  0.40883230    -0.20400
F573        F  0.19933622  0.18921189  0.45856903    -0.20100
F574        F  0.01049310  0.24108084  0.33818350    -0.20200
F575        F  0.98174002  0.24170376  0.39197550    -0.20500
F576        F  0.98736475  0.17443978  0.36311908    -0.23200
C577        C  0.17519717  0.43584969  0.37457070    -0.06000
C578        C  0.14481890  0.44928127  0.40149550    -0.00100
C579        C  0.15801514  0.48744543  0.42227865    -0.08600
C580        C  0.20375486  0.50616808  0.41881986    -0.06000
C581        C  0.23697377  0.48732870  0.39593183    -0.00100
C582        C  0.22132383  0.45504240  0.37117584    -0.08500
C583        C  0.25295300  0.44183811  0.34148745     0.61800
H584        H  0.16368293  0.40843130  0.35743631     0.12500
H585        H  0.21579546  0.53238061  0.43682581     0.12500
C586        C  0.12477561  0.50746310  0.44889844     0.62100
F587        F  0.23051620  0.41122208  0.31941793    -0.23100
F588        F  0.29412074  0.42109029  0.35298471    -0.20400
F589        F  0.26465743  0.48174759  0.32340411    -0.20100
F590        F  0.12135875  0.47757309  0.47653666    -0.20200
F591        F  0.08031414  0.51429858  0.43481695    -0.20500
F592        F  0.14090308  0.54994553  0.46074550    -0.23200
C593        C  0.77152777  0.31731476  0.41596436    -0.06000
C594        C  0.81178087  0.28914348  0.41092064    -0.00100
C595        C  0.80692923  0.24009497  0.40977330    -0.08600
C596        C  0.76132903  0.22116214  0.41142653    -0.06000
C597        C  0.72084825  0.24941712  0.41322461    -0.00100
C598        C  0.72567163  0.29821682  0.41715292    -0.08500
C599        C  0.68300221  0.33000981  0.42100925     0.61800
H600        H  0.77627971  0.35475207  0.41798953     0.12500
H601        H  0.75668361  0.18373216  0.41000958     0.12500
C602        C  0.84904753  0.20782337  0.40543475     0.62100
F603        F  0.69602458  0.37657197  0.42286842    -0.23100
F604        F  0.65885751  0.31890013  0.45066803    -0.20400
F605        F  0.65307951  0.32470224  0.39326984    -0.20100
F606        F  0.87749537  0.21062608  0.43402039    -0.20200
F607        F  0.87472060  0.22050013  0.37678423    -0.20500
F608        F  0.83539017  0.16166500  0.40165416    -0.23200
C609        C  0.97188779  0.65742149  0.12884527    -0.06000
C610        C  0.92350348  0.64847676  0.12338119    -0.00100
C611        C  0.89020453  0.68407894  0.13041433    -0.08600
C612        C  0.90639327  0.72792871  0.14128252    -0.06000
C613        C  0.95477644  0.73882622  0.14318958    -0.00100
C614        C  0.98825829  0.70251960  0.13810578    -0.08500
C615        C  0.04094108  0.71188837  0.14107379     0.61800
H616        H  0.99680467  0.62942881  0.12428753     0.12500
H617        H  0.88116275  0.75568834  0.14514857     0.12500
C618        C  0.83754404  0.67618634  0.12553110     0.62100
F619        F  0.06731820  0.67226799  0.13436066    -0.23100
F620        F  0.05139540  0.72664365  0.17382901    -0.20400
F621        F  0.05429633  0.74615806  0.11816755    -0.20100
F622        F  0.82375039  0.63841539  0.14488600    -0.20200
F623        F  0.82792928  0.66758416  0.09148453    -0.20500
F624        F  0.81088600  0.71427189  0.13560112    -0.23200
C625        C  0.67617723  0.60129939  0.15311525    -0.06000
C626        C  0.64838598  0.59345140  0.12369895    -0.00100
C627        C  0.66399893  0.55993615  0.09967616    -0.08600
C628        C  0.70903855  0.53980471  0.10393528    -0.06000
C629        C  0.73986379  0.55271514  0.13066168    -0.00100
C630        C  0.72183484  0.58150048  0.15708786    -0.08500
C631        C  0.74872749  0.59301361  0.18951438     0.61800
H632        H  0.66333000  0.62531325  0.17234892     0.12500
H633        H  0.72265026  0.51729063  0.08403184     0.12500
C634        C  0.63495393  0.54729066  0.06831142     0.62100
F635        F  0.75514163  0.64078648  0.19182472    -0.23100
F636        F  0.79243738  0.57156931  0.19124212    -0.20400
F637        F  0.72241265  0.57828699  0.21731131    -0.20100
F638        F  0.63907782  0.58225516  0.04409041    -0.20200
F639        F  0.58776212  0.54156846  0.07696699    -0.20500
F640        F  0.65033355  0.50596874  0.05381999    -0.23200
C641        C  0.75383219  0.30708881  0.11039994    -0.06000
C642        C  0.80238250  0.30360525  0.10403773    -0.00100
C643        C  0.82286255  0.25955115  0.09730679    -0.08600
C644        C  0.79426429  0.21966351  0.09991020    -0.06000
C645        C  0.74600297  0.22269927  0.10809982    -0.00100
C646        C  0.72477956  0.26748059  0.11229239    -0.08500
C647        C  0.67199678  0.27442463  0.11862196     0.61800
H648        H  0.73906095  0.34136792  0.11503755     0.12500
H649        H  0.80975591  0.18558698  0.09608824     0.12500
C650        C  0.87377589  0.25479883  0.08560886     0.62100
F651        F  0.66040783  0.25963558  0.15121273    -0.23100
F652        F  0.64585660  0.24975343  0.09478873    -0.20400
F653        F  0.65899598  0.32087265  0.11593499    -0.20100
F654        F  0.90448052  0.26838960  0.11125949    -0.20200
F655        F  0.88048603  0.28246381  0.05708100    -0.20500
F656        F  0.88473245  0.20929313  0.07683814    -0.23200
C657        C  0.93834314  0.49196912  0.24630290    -0.06000
C658        C  0.95267952  0.46099282  0.22053809    -0.00100
C659        C  0.98265337  0.42264224  0.22986584    -0.08600
C660        C  0.99171943  0.41418110  0.26468965    -0.06000
C661        C  0.97355229  0.44265329  0.29048788    -0.00100
C662        C  0.94917969  0.48420981  0.28104806    -0.08500
C663        C  0.93478345  0.52078920  0.30709076     0.61800
H664        H  0.91731980  0.52203902  0.23918928     0.12500
H665        H  0.01139593  0.38343624  0.27219644     0.12500
C666        C  0.00463531  0.38937597  0.20403255     0.62100
F667        F  0.92394648  0.56292624  0.29156718    -0.23100
F668        F  0.97167880  0.52883142  0.32967493    -0.20400
F669        F  0.89518855  0.50595408  0.32485515    -0.20100
F670        F  0.03117941  0.41434542  0.18056446    -0.20200
F671        F  0.96952536  0.36426704  0.18753761    -0.20500
F672        F  0.03480270  0.35742478  0.21929819    -0.23200
C673        C  0.96079835  0.31374511  0.99479389    -0.06000
C674        C  0.97889824  0.27356005  0.01062888    -0.00100
C675        C  0.99093353  0.27506604  0.04560231    -0.08600
C676        C  0.98059522  0.31587648  0.06432747    -0.06000
C677        C  0.95792377  0.35481621  0.04925425    -0.00100
C678        C  0.95113954  0.35481576  0.01327544    -0.08500
C679        C  0.93422615  0.39767252  0.99406111     0.61800
H680        H  0.95387796  0.31261491  0.96757087     0.12500
H681        H  0.98697491  0.31601147  0.09158300     0.12500
C682        C  0.01217795  0.23285716  0.06328180     0.62100
F683        F  0.94511022  0.39491205  0.95964235    -0.23100
F684        F  0.95593656  0.43726563  0.00693813    -0.20400
F685        F  0.88572363  0.40187819  0.99712224    -0.20100
F686        F  0.05553843  0.22244984  0.04880770    -0.20200
F687        F  0.98220557  0.19491110  0.05965131    -0.20500
F688        F  0.01913640  0.24051965  0.09783409    -0.23200
C689        C  0.86648235  0.08189901  0.98746020    -0.06000
C690        C  0.85501595  0.08099359  0.95251969    -0.00100
C691        C  0.81097243  0.06073276  0.94239209    -0.08600
C692        C  0.77803399  0.04771998  0.96794799    -0.06000
C693        C  0.78781573  0.05442825  0.00269745    -0.00100
C694        C  0.83360204  0.06946225  0.01272749    -0.08500
C695        C  0.84750588  0.07332501  0.05007177     0.61800
H696        H  0.90074968  0.09552428  0.99504140     0.12500
H697        H  0.74344463  0.03428650  0.96098317     0.12500
C698        C  0.79766787  0.05426971  0.90512465     0.62100
F699        F  0.89435711  0.08676425  0.05420898    -0.23100
F700        F  0.84146931  0.03057345  0.06594110    -0.20400
F701        F  0.81952865  0.10627770  0.06582945    -0.20100
F702        F  0.83212526  0.02821155  0.88887673    -0.20200
F703        F  0.79341598  0.09721199  0.88929441    -0.20500
F704        F  0.75493224  0.03092796  0.90146656    -0.23200
C705        C  0.95568422  0.06500674  0.77751298    -0.06000
C706        C  0.97168093  0.11097106  0.78325215    -0.00100
C707        C  0.98190472  0.13987065  0.75486718    -0.08600
C708        C  0.97193373  0.12286571  0.72190202    -0.06000
C709        C  0.95163396  0.07838419  0.71624690    -0.00100
C710        C  0.94558471  0.04797275  0.74454605    -0.08500
C711        C  0.92826931  0.99803480  0.74047595     0.61800
H712        H  0.94906447  0.04288867  0.79946587     0.12500
H713        H  0.97779323  0.14564933  0.70024385     0.14100
C714        C  0.00064941  0.18930063  0.75920534     0.62100
F715        F  0.93256689  0.97286415  0.77054577    -0.23100
F716        F  0.95482492  0.97557285  0.71581515    -0.20400
F717        F  0.88097903  0.99773310  0.73115698    -0.20100
F718        F  0.04430396  0.18814707  0.77530325    -0.20200
F719        F  0.96926213  0.21521628  0.77852427    -0.20500
F720        F  0.00648366  0.21184885  0.72818262    -0.23200
C721        C  0.96354158  0.20166761  0.48537871    -0.06000
C722        C  0.98641080  0.23967295  0.50091529    -0.00100
C723        C  0.99896225  0.23695309  0.53572802    -0.08600
C724        C  0.98289279  0.19850146  0.55490499    -0.06000
C725        C  0.95461114  0.16297501  0.54032567    -0.00100
C726        C  0.94791381  0.16278259  0.50444105    -0.08500
C727        C  0.92377262  0.12266906  0.48611643     0.61800
H728        H  0.95706707  0.20315293  0.45816207     0.12500
H729        H  0.98939721  0.19802785  0.58215196     0.12500
C730        C  0.02696232  0.27570173  0.55283677     0.62100
F731        F  0.93781118  0.12067142  0.45226593    -0.23100
F732        F  0.87517480  0.12851997  0.48715716    -0.20400
F733        F  0.93559626  0.08055680  0.50123602    -0.20100
F734        F  0.00190204  0.31705764  0.55089920    -0.20200
F735        F  0.07012808  0.28119183  0.53661163    -0.20500
F736        F  0.03579875  0.26610410  0.58692784    -0.23200
C737        C  0.75224502  0.05509826  0.46486240    -0.06000
C738        C  0.74257979  0.05975379  0.49978912    -0.00100
C739        C  0.69638599  0.07278835  0.51003026    -0.08600
C740        C  0.66296758  0.08568875  0.48521803    -0.06000
C741        C  0.67388715  0.08618769  0.45027443    -0.00100
C742        C  0.71838327  0.06745012  0.43965858    -0.08500
C743        C  0.73090121  0.06108348  0.40225029     0.61800
H744        H  0.78711008  0.04302493  0.45751007     0.12500
H745        H  0.62860160  0.09835110  0.49324222     0.12500
C746        C  0.68304004  0.07519815  0.54727053     0.62100
F747        F  0.77380472  0.03838412  0.39820660    -0.23100
F748        F  0.73424933  0.10395496  0.38621816    -0.20400
F749        F  0.69641746  0.03435946  0.38641431    -0.20100
F750        F  0.70843815  0.11089317  0.56237718    -0.20200
F751        F  0.69337129  0.03308263  0.56284537    -0.20500
F752        F  0.63521537  0.08394430  0.55190905    -0.23200
C753        C  0.67930329  0.42192007  0.99105766    -0.06000
C754        C  0.67163334  0.44709478  0.96066403    -0.00100
C755        C  0.70160585  0.48616633  0.95382723    -0.08600
C756        C  0.73970195  0.49589350  0.97649777    -0.06000
C757        C  0.74981508  0.46722535  0.00483176    -0.00100
C758        C  0.71802204  0.43027946  0.01262742    -0.08500
C759        C  0.72542622  0.39781318  0.04274012     0.61800
H760        H  0.65658002  0.39252968  0.99684444     0.12500
H761        H  0.76321640  0.52501040  0.97143826     0.12500
C762        C  0.69391829  0.51771992  0.92313736     0.62100
F763        F  0.68652729  0.36939098  0.04873523    -0.23100
F764        F  0.73339747  0.42341095  0.07210864    -0.20400
F765        F  0.76355347  0.36921388  0.03576123    -0.20100
F766        F  0.64692726  0.53126662  0.92159671    -0.20200
F767        F  0.70597666  0.49455368  0.89346845    -0.20500
F768        F  0.72144126  0.55773439  0.92499032    -0.23200
C769        C  0.59993212  0.22905183  0.99722680    -0.06000
C770        C  0.55711231  0.25061177  0.00635072    -0.00100
C771        C  0.53111358  0.23236899  0.03430118    -0.08600
C772        C  0.55027755  0.19459957  0.05304341    -0.06000
C773        C  0.59449180  0.17438431  0.04499379    -0.00100
C774        C  0.61908995  0.19116978  0.01559841    -0.08500
C775        C  0.66625201  0.17100164  0.00391667     0.61800
H776        H  0.61901185  0.24295544  0.97554397     0.12500
H777        H  0.53140682  0.18161639  0.07517225     0.12500
C778        C  0.48470013  0.25415560  0.04552359     0.62100
F779        F  0.68283360  0.19210660  0.97445234    -0.23100
F780        F  0.66098570  0.12391467  0.99706724    -0.20400
F781        F  0.70031030  0.17757174  0.02885853    -0.20100
F782        F  0.45070451  0.24786852  0.02047849    -0.20200
F783        F  0.49118549  0.30138230  0.05125681    -0.20500
F784        F  0.46776745  0.23430926  0.07538898    -0.23200
C785        C  0.75414233  0.31423725  0.92444709    -0.06000
C786        C  0.71453288  0.29056293  0.91160106    -0.00100
C787        C  0.71745519  0.24288623  0.90325891    -0.08600
C788        C  0.76175289  0.22122968  0.90547576    -0.06000
C789        C  0.80296261  0.24576652  0.91538468    -0.00100
C790        C  0.79852987  0.29234357  0.92730355    -0.08500
C791        C  0.83961597  0.31924245  0.94269813     0.61800
H792        H  0.74993503  0.35045746  0.93177090     0.12500
H793        H  0.76471498  0.18497757  0.89813976     0.12500
C794        C  0.67471530  0.21574084  0.89028509     0.62100
F795        F  0.82593284  0.36329452  0.95320466    -0.23100
F796        F  0.87542823  0.32445173  0.91891396    -0.20400
F797        F  0.85648055  0.29560109  0.97103375    -0.20100
F798        F  0.65822331  0.23575332  0.86039394    -0.20200
F799        F  0.63904019  0.21628785  0.91435481    -0.20500
F800        F  0.68557717  0.16951775  0.88372020    -0.23200
C801        C  0.77575402  0.30013181  0.62596246    -0.06000
C802        C  0.75014481  0.31214099  0.59664583    -0.00100
C803        C  0.75145086  0.28311508  0.56744004    -0.08600
C804        C  0.77785976  0.24160212  0.56924485    -0.06000
C805        C  0.80239856  0.22899985  0.59910096    -0.00100
C806        C  0.80160211  0.25877252  0.62806051    -0.08500
C807        C  0.82559438  0.24634582  0.66179265     0.61800
H808        H  0.77423142  0.32327503  0.64779810     0.12500
H809        H  0.77920206  0.21835512  0.54747738     0.12500
C810        C  0.72372264  0.29473286  0.53527518     0.62100
F811        F  0.81361102  0.27706640  0.68763379    -0.23100
F812        F  0.87431377  0.24796943  0.65815874    -0.20400
F813        F  0.81187625  0.20210451  0.67208804    -0.20100
F814        F  0.74030326  0.33591975  0.52132181    -0.20200
F815        F  0.67623381  0.29952194  0.54303706    -0.20500
F816        F  0.72794837  0.26024253  0.51074035    -0.23200
C817        C  0.55049374  0.43567427  0.72720075    -0.06000
C818        C  0.59123202  0.46329074  0.72153755    -0.00100
C819        C  0.61417325  0.48367617  0.75013720    -0.08600
C820        C  0.59778896  0.47231844  0.78312025    -0.06000
C821        C  0.56007335  0.44073085  0.78897487    -0.00100
C822        C  0.53442731  0.42385671  0.76026611    -0.08500
C823        C  0.49133457  0.39235473  0.76392030     0.61800
H824        H  0.53219328  0.42147904  0.70522431     0.12500
H825        H  0.61623977  0.48680135  0.80489907     0.12500
C826        C  0.65713886  0.51549463  0.74643217     0.62100
F827        F  0.46955053  0.38390874  0.73281396    -0.23100
F828        F  0.45823780  0.41319775  0.78497061    -0.20400
F829        F  0.50483807  0.34981186  0.77750877    -0.20100
F830        F  0.64527348  0.55425272  0.72712573    -0.20200
F831        F  0.69373855  0.49156207  0.73085153    -0.20500
F832        F  0.67364126  0.53128233  0.77766965    -0.23200
C833        C  0.79682610  0.42817221  0.50859049    -0.06000
C834        C  0.76918538  0.46467005  0.49567701    -0.00100
C835        C  0.78353817  0.48739624  0.46534265    -0.08600
C836        C  0.82513064  0.47206012  0.44871497    -0.06000
C837        C  0.85247087  0.43431275  0.46108269    -0.00100
C838        C  0.83795743  0.41220452  0.49223746    -0.08500
C839        C  0.86376068  0.37091934  0.50843170     0.61800
H840        H  0.78584143  0.41226991  0.53235681     0.12500
H841        H  0.83560848  0.48871571  0.42506900     0.12500
C842        C  0.75363097  0.52575632  0.44962294     0.62100
F843        F  0.84558787  0.35920080  0.54017758    -0.23100
F844        F  0.91115640  0.38165858  0.51310555    -0.20400
F845        F  0.85905886  0.33197967  0.48786103    -0.20100
F846        F  0.75325289  0.56434366  0.47073947    -0.20200
F847        F  0.70772619  0.50978038  0.44514885    -0.20500
F848        F  0.77084037  0.53963219  0.41809395    -0.23200
C849        C  0.57144981  0.30342703  0.56738442    -0.06000
C850        C  0.57623129  0.34966702  0.55525938    -0.00100
C851        C  0.56268961  0.35962255  0.52105181    -0.08600
C852        C  0.55003780  0.32232347  0.49938271    -0.06000
C853        C  0.54962276  0.27594843  0.51098229    -0.00100
C854        C  0.55889131  0.26630102  0.54566224    -0.08500
C855        C  0.55712032  0.21665536  0.55919206     0.61800
H856        H  0.58146691  0.29565195  0.59347760     0.12500
H857        H  0.54206944  0.32912997  0.47273793     0.12500
C858        C  0.56311265  0.40865478  0.50645004     0.62100
F859        F  0.56338796  0.21495089  0.59424877    -0.23100
F860        F  0.59251515  0.19051884  0.54411453    -0.20400
F861        F  0.51357971  0.19686128  0.55165374    -0.20100
F862        F  0.60746488  0.41838452  0.49320344    -0.20200
F863        F  0.55202875  0.44116391  0.53126760    -0.20500
F864        F  0.52987824  0.41298837  0.48057323    -0.23200
C865        C  0.21793688  0.09821405  0.85793004    -0.06000
C866        C  0.22820777  0.05344684  0.86999755    -0.00100
C867        C  0.18989601  0.02532985  0.88073279    -0.08600
C868        C  0.14635663  0.04668325  0.88929666    -0.06000
C869        C  0.13928379  0.09464234  0.88364379    -0.00100
C870        C  0.17423300  0.11991629  0.86504349    -0.08500
C871        C  0.16663556  0.17029491  0.85438960     0.61800
H872        H  0.24571119  0.11725431  0.84526248     0.12500
H873        H  0.11797869  0.02625702  0.90047986     0.12500
C874        C  0.19590614  0.97290704  0.88164388     0.62100
F875        F  0.20615140  0.18898822  0.83845910    -0.23100
F876        F  0.15710720  0.19720762  0.88278113    -0.20400
F877        F  0.12907385  0.17285329  0.83176195    -0.20100
F878        F  0.23315607  0.96080047  0.90273557    -0.20200
F879        F  0.20584937  0.95737363  0.84901054    -0.20500
F880        F  0.15524296  0.95058945  0.89287773    -0.23200
C881        C  0.39525249  0.24211251  0.88048759    -0.06000
C882        C  0.44456833  0.24798323  0.88038908    -0.00100
C883        C  0.47372322  0.20796878  0.88349510    -0.08600
C884        C  0.45238489  0.16391020  0.88946598    -0.06000
C885        C  0.40309330  0.15916501  0.89387858    -0.00100
C886        C  0.37395358  0.19880108  0.88779961    -0.08500
C887        C  0.32045050  0.19577558  0.88882176     0.61800
H888        H  0.37340739  0.27307881  0.87844980     0.12500
H889        H  0.47437130  0.13336256  0.89307423     0.12500
C890        C  0.52722112  0.21252832  0.88271462     0.62100
F891        F  0.29912839  0.23568818  0.87606726    -0.23100
F892        F  0.30498857  0.18929427  0.92197650    -0.20400
F893        F  0.30628786  0.15881242  0.86894775    -0.20100
F894        F  0.54238345  0.24002290  0.90960003    -0.20200
F895        F  0.54091568  0.23299051  0.85226176    -0.20500
F896        F  0.54932062  0.16956229  0.88533340    -0.23200
C897        C  0.15631182  0.94781061  0.03661426    -0.06000
C898        C  0.16773050  0.94993962  0.07149367    -0.00100
C899        C  0.21174269  0.97097266  0.08111977    -0.08600
C900        C  0.24471373  0.98325168  0.05530767    -0.06000
C901        C  0.23447372  0.97691738  0.02059288    -0.00100
C902        C  0.18849195  0.96173549  0.01114727    -0.08500
C903        C  0.17383559  0.95933231  0.97409621     0.61800
H904        H  0.12234833  0.93323325  0.02926525     0.12500
H905        H  0.27924075  0.99705897  0.06203225     0.12500
C906        C  0.22463887  0.97998218  0.11819885     0.62100
F907        F  0.12629680  0.94836346  0.97023824    -0.23100
F908        F  0.20021775  0.92535156  0.95806385    -0.20400
F909        F  0.18168510  0.00216977  0.95876655    -0.20100
F910        F  0.22847201  0.93828172  0.13570902    -0.20200
F911        F  0.19011628  0.00733041  0.13319531    -0.20500
F912        F  0.26741761  0.00337244  0.12129865    -0.23200
C913        C  0.47411588  0.83670856  0.96683021    -0.06000
C914        C  0.43999018  0.86904066  0.97877634    -0.00100
C915        C  0.42833022  0.86770355  0.01424052    -0.08600
C916        C  0.44629893  0.83105168  0.03468440    -0.06000
C917        C  0.47659546  0.79665918  0.02169060    -0.00100
C918        C  0.49264152  0.80068598  0.98763958    -0.08500
C919        C  0.52746874  0.76577634  0.97293561     0.61800
H920        H  0.48473570  0.83819557  0.94031485     0.12500
H921        H  0.43556069  0.82804231  0.06112498     0.12500
C922        C  0.39592497  0.90324556  0.03084137     0.62100
F923        F  0.53654329  0.77409616  0.93871284    -0.23100
F924        F  0.50938475  0.72104452  0.97600267    -0.20400
F925        F  0.56998273  0.76859865  0.99043736    -0.20100
F926        F  0.34972208  0.89537922  0.02059823    -0.20200
F927        F  0.40987110  0.94796915  0.02193943    -0.20500
F928        F  0.39726784  0.90036680  0.06612235    -0.23200
C929        C  0.65833508  0.98460725  0.63429755    -0.06000
C930        C  0.65292748  0.93807871  0.64513031    -0.00100
C931        C  0.68912549  0.91903916  0.66657724    -0.08600
C932        C  0.73434848  0.94016599  0.66608088    -0.06000
C933        C  0.74150767  0.98329647  0.65015598    -0.00100
C934        C  0.70125881  0.00879809  0.64000104    -0.08500
C935        C  0.70404452  0.06143704  0.63796886     0.61800
H936        H  0.62881169  0.00200523  0.62201422     0.12500
H937        H  0.76451347  0.92202520  0.67694964     0.12500
C938        C  0.68223397  0.87953180  0.69190232     0.62100
F939        F  0.66214431  0.08056905  0.62605407    -0.23100
F940        F  0.74080948  0.07519827  0.61700621    -0.20400
F941        F  0.71255123  0.07883228  0.67033601    -0.20100
F942        F  0.71597382  0.84535117  0.68663498    -0.20200
F943        F  0.63773861  0.85960109  0.69040281    -0.20500
F944        F  0.68843893  0.89708236  0.72451657    -0.23200
C945        C  0.64758030  0.68293515  0.62458550    -0.06000
C946        C  0.61370162  0.64749092  0.62713701    -0.00100
C947        C  0.56880219  0.65806338  0.64162390    -0.08600
C948        C  0.55763163  0.70547100  0.64868014    -0.06000
C949        C  0.59057707  0.74161307  0.64267671    -0.00100
C950        C  0.63741774  0.72924825  0.63275558    -0.08500
C951        C  0.67751686  0.76390793  0.62775259     0.61800
H952        H  0.68273020  0.67448764  0.61521791     0.12500
H953        H  0.52197624  0.71492704  0.65613546     0.12500
C954        C  0.53231251  0.62011552  0.64792166     0.62100
F955        F  0.71698051  0.74896793  0.64567393    -0.23100
F956        F  0.66630899  0.80789835  0.63907605    -0.20400
F957        F  0.68872729  0.76663848  0.59342876    -0.20100
F958        F  0.54972529  0.58854604  0.67155241    -0.20200
F959        F  0.52236099  0.59710564  0.61772069    -0.20500
F960        F  0.49037618  0.63807180  0.66063013    -0.23200
C961        C  0.47347630  0.92118173  0.80332878    -0.06000
C962        C  0.44948045  0.96413228  0.80719322    -0.00100
C963        C  0.44445906  0.99332661  0.77811931    -0.08600
C964        C  0.45721521  0.97556557  0.74587816    -0.06000
C965        C  0.47664626  0.93067883  0.74172785    -0.00100
C966        C  0.48801885  0.90427472  0.77121195    -0.08500
C967        C  0.51418062  0.85806048  0.76898122     0.61800
H968        H  0.47942450  0.89970849  0.82567601     0.12500
H969        H  0.45052943  0.99637517  0.72326380     0.12500
C970        C  0.42603920  0.04294441  0.78064265     0.62100
F971        F  0.52194551  0.83852943  0.80086749    -0.23100
F972        F  0.55792839  0.86514804  0.75387097    -0.20400
F973        F  0.48820879  0.82645857  0.74988618    -0.20100
F974        F  0.44971300  0.06639826  0.80643025    -0.20200
F975        F  0.37793713  0.04253242  0.78731694    -0.20500
F976        F  0.43320519  0.06755167  0.75060555    -0.23200
C977        C  0.32668765  0.96666792  0.58226701    -0.06000
C978        C  0.36798275  0.94601054  0.56877919    -0.00100
C979        C  0.37376956  0.94533635  0.53263572    -0.08600
C980        C  0.33589555  0.95987621  0.51166658    -0.06000
C981        C  0.29343293  0.97683223  0.52533300    -0.00100
C982        C  0.28952730  0.98266145  0.56104573    -0.08500
C983        C  0.24595014  0.00510053  0.57647961     0.61800
H984        H  0.32247154  0.96808155  0.60971929     0.12500
H985        H  0.33906086  0.95747647  0.48414545     0.12500
C986        C  0.41842412  0.92751361  0.51551234     0.62100
F987        F  0.24812569  0.00618272  0.61179659    -0.23100
F988        F  0.20583823  0.98045668  0.56712210    -0.20400
F989        F  0.24213187  0.05049938  0.56475049    -0.20100
F990        F  0.41543151  0.87965051  0.51176674    -0.20200
F991        F  0.45827737  0.93898917  0.53437457    -0.20500
F992        F  0.42404119  0.94710138  0.48350350    -0.23200
C993        C  0.47629226  0.72123597  0.45996520    -0.06000
C994        C  0.45211431  0.68257321  0.47440976    -0.00100
C995        C  0.45083524  0.67849569  0.51063799    -0.08600
C996        C  0.46903272  0.71529376  0.53057824    -0.06000
C997        C  0.48955549  0.75516573  0.51591482    -0.00100
C998        C  0.49537213  0.75747866  0.48020848    -0.08500
C999        C  0.52062932  0.79854288  0.46378096     0.61800
H1000       H  0.47832935  0.72420913  0.43244847     0.12500
H1001       H  0.46579304  0.71399949  0.55814347     0.12500
C1002       C  0.42975935  0.63639499  0.52873826     0.62100
F1003       F  0.52138255  0.79507487  0.42851770    -0.23100
F1004       F  0.56696884  0.80014982  0.47530502    -0.20400
F1005       F  0.49814092  0.83973344  0.47233447    -0.20100
F1006       F  0.44520020  0.59569640  0.51343730    -0.20200
F1007       F  0.38085335  0.63854378  0.52755741    -0.20500
F1008       F  0.44326211  0.63467953  0.56273706    -0.23200
C1009       C  0.07066758  0.31101369  0.93790831    -0.06000
C1010       C  0.06831436  0.29326978  0.90446402    -0.00100
C1011       C  0.07832254  0.32378797  0.87693592    -0.08600
C1012       C  0.09305178  0.37017069  0.88428288    -0.06000
C1013       C  0.09784503  0.38664583  0.91817372    -0.00100
C1014       C  0.08460792  0.35673945  0.94545684    -0.08500
C1015       C  0.08584119  0.37191754  0.98277912     0.61800
H1016       H  0.06320434  0.28798797  0.95887830     0.12500
H1017       H  0.10279115  0.39333328  0.86355658     0.12500
C1018       C  0.07541481  0.30699977  0.84035514     0.62100
F1019       F  0.06201063  0.34099304  0.00377323    -0.23100
F1020       F  0.06454347  0.41509300  0.98636718    -0.20400
F1021       F  0.13217432  0.37396022  0.99425152    -0.20100
F1022       F  0.02915634  0.29483435  0.83270286    -0.20200
F1023       F  0.10430615  0.26856645  0.83607908    -0.20500
F1024       F  0.08974315  0.34110627  0.81747498    -0.23200
C1025       C  0.33645348  0.40400681  0.88695582    -0.06000
C1026       C  0.37408545  0.43393211  0.89544556    -0.00100
C1027       C  0.36589641  0.48248198  0.89778778    -0.08600
C1028       C  0.31904955  0.49916911  0.89444890    -0.06000
C1029       C  0.28059170  0.46853118  0.88975916    -0.00100
C1030       C  0.28957200  0.42047453  0.88440089    -0.08500
C1031       C  0.24909851  0.38634931  0.87855851     0.61800
H1032       H  0.34362165  0.36699420  0.88472782     0.12500
H1033       H  0.31152058  0.53563755  0.89921222     0.12500
C1034       C  0.40610466  0.51582589  0.90589327     0.62100
F1035       F  0.26543465  0.34200889  0.87104119    -0.23100
F1036       F  0.22160372  0.40153868  0.85147829    -0.20400
F1037       F  0.22117933  0.38333519  0.90747949    -0.20100
F1038       F  0.44080457  0.51218829  0.88113076    -0.20200
F1039       F  0.42540844  0.50477857  0.93737079    -0.20500
F1040       F  0.39093549  0.56173515  0.90687357    -0.23200
C1041       C  0.27750149  0.72771180  0.91214321    -0.06000
C1042       C  0.22846017  0.73081982  0.91678308    -0.00100
C1043       C  0.20699295  0.77496771  0.92189065    -0.08600
C1044       C  0.23567381  0.81493134  0.92050553    -0.06000
C1045       C  0.28458912  0.81202345  0.91473249    -0.00100
C1046       C  0.30631530  0.76754328  0.91105765    -0.08500
C1047       C  0.35935795  0.76136082  0.90573945     0.61800
H1048       H  0.29298851  0.69353193  0.90836306     0.12500
H1049       H  0.21986237  0.84906564  0.92341148     0.12500
C1050       C  0.15481653  0.78003318  0.93062091     0.62100
F1051       F  0.37312082  0.71533340  0.90993040    -0.23100
F1052       F  0.38443876  0.78778463  0.92914567    -0.20400
F1053       F  0.37138509  0.77484241  0.87293129    -0.20100
F1054       F  0.14493206  0.75361990  0.95929274    -0.20200
F1055       F  0.12683515  0.76534242  0.90370376    -0.20500
F1056       F  0.14280765  0.82587238  0.93765380    -0.23200
C1057       C  0.04771459  0.71471259  0.96555329    -0.06000
C1058       C  0.07206735  0.67550894  0.97855100    -0.00100
C1059       C  0.07814508  0.67155740  0.01447429    -0.08600
C1060       C  0.06682669  0.70999647  0.03518853    -0.06000
C1061       C  0.04712188  0.75086131  0.02157679    -0.00100
C1062       C  0.03497545  0.75251797  0.98661456    -0.08500
C1063       C  0.01086894  0.79508524  0.97151567     0.61800
H1064       H  0.04193412  0.71737411  0.93828692     0.12500
H1065       H  0.07406109  0.70841724  0.06230056     0.12500
C1066       C  0.09714669  0.62775650  0.03141712     0.62100
F1067       F  0.00297517  0.79031509  0.93679204    -0.23100
F1068       F  0.03895324  0.83410569  0.97659952    -0.20400
F1069       F  0.96753789  0.80173171  0.98722187    -0.20100
F1070       F  0.14609422  0.62905501  0.03187192    -0.20200
F1071       F  0.08187179  0.58836361  0.01416843    -0.20500
F1072       F  0.08123977  0.62414382  0.06477028    -0.23200
C1073       C  0.28469424  0.55511924  0.05558119    -0.06000
C1074       C  0.28122252  0.57649690  0.02343471    -0.00100
C1075       C  0.31774774  0.60712630  0.01268407    -0.08600
C1076       C  0.35506529  0.61723570  0.03524874    -0.06000
C1077       C  0.35677708  0.59941692  0.06881040    -0.00100
C1078       C  0.32131921  0.56644293  0.07887301    -0.08500
C1079       C  0.32037648  0.54417581  0.11412059     0.61800
H1080       H  0.25707136  0.53074879  0.06282996     0.12500
H1081       H  0.38194830  0.64185612  0.02714450     0.12500
C1082       C  0.31652186  0.63149084  0.97824784     0.62100
F1083       F  0.28580699  0.50996288  0.11670630    -0.23100
F1084       F  0.31079123  0.57776027  0.13848376    -0.20400
F1085       F  0.36354541  0.52333645  0.12096665    -0.20100
F1086       F  0.28350143  0.66693885  0.97960123    -0.20200
F1087       F  0.30474861  0.60040060  0.95258602    -0.20500
F1088       F  0.35993702  0.65103129  0.96993719    -0.23200
C1089       C  0.88178189  0.85004170  0.63253558    -0.06000
C1090       C  0.91579459  0.88459314  0.62635567    -0.00100
C1091       C  0.96445667  0.87407763  0.63137267    -0.08600
C1092       C  0.97726562  0.82768322  0.63972845    -0.06000
C1093       C  0.94313940  0.79202388  0.64293973    -0.00100
C1094       C  0.89430100  0.80406792  0.64093306    -0.08500
C1095       C  0.85506058  0.76913927  0.64840656     0.61800
H1096       H  0.84474693  0.85938681  0.62998567     0.12500
H1097       H  0.01434641  0.81800907  0.64066592     0.12500
C1098       C  0.00276345  0.91048846  0.62545557     0.62100
F1099       F  0.81065851  0.78961259  0.64732951    -0.23100
F1100       F  0.86149794  0.75157286  0.68088881    -0.20400
F1101       F  0.85507770  0.73314404  0.62498323    -0.20100
F1102       F  0.99739764  0.94692806  0.64819844    -0.20200
F1103       F  0.99962738  0.92741692  0.59241628    -0.20500
F1104       F  0.04772721  0.89223454  0.63006271    -0.23200
C1105       C  0.81025394  0.57928536  0.65491950    -0.06000
C1106       C  0.79676523  0.55038924  0.62767165    -0.00100
C1107       C  0.83238595  0.53530048  0.60461011    -0.08600
C1108       C  0.87635756  0.55793434  0.60430031    -0.06000
C1109       C  0.88835299  0.59111637  0.62889999    -0.00100
C1110       C  0.85694349  0.59773382  0.65698840    -0.08500
C1111       C  0.87260430  0.62331867  0.68885006     0.61800
H1112       H  0.78369850  0.58898911  0.67352774     0.12500
H1113       H  0.90149168  0.54990319  0.58420916     0.12500
C1114       C  0.82515635  0.49689390  0.57872893     0.62100
F1115       F  0.83644956  0.62671910  0.71257858    -0.23100
F1116       F  0.88752224  0.66775769  0.68078050    -0.20400
F1117       F  0.90968911  0.59919453  0.70374824    -0.20100
F1118       F  0.82648397  0.51608554  0.54633781    -0.20200
F1119       F  0.78285821  0.47333379  0.58338914    -0.20500
F1120       F  0.86139741  0.46467482  0.58174939    -0.23200
C1121       C  0.26317690  0.72071728  0.61596699    -0.06000
C1122       C  0.22332032  0.75046687  0.61540489    -0.00100
C1123       C  0.23009898  0.79876965  0.60915258    -0.08600
C1124       C  0.27664010  0.81589743  0.60696591    -0.06000
C1125       C  0.31620767  0.78667444  0.61072847    -0.00100
C1126       C  0.30972115  0.73802089  0.61372181    -0.08500
C1127       C  0.35152409  0.70489793  0.61584054     0.61800
H1128       H  0.25764385  0.68352954  0.61906175     0.12500
H1129       H  0.28274325  0.85299940  0.60368120     0.12500
C1130       C  0.18905969  0.83247010  0.60555861     0.62100
F1131       F  0.33722692  0.65893737  0.61979714    -0.23100
F1132       F  0.37999447  0.71650260  0.64335412    -0.20400
F1133       F  0.37765509  0.70799070  0.58609885    -0.20100
F1134       F  0.16056364  0.83043558  0.63425127    -0.20200
F1135       F  0.16307658  0.82071165  0.57694549    -0.20500
F1136       F  0.20421657  0.87817653  0.60164489    -0.23200
C1137       C  0.08159525  0.56070579  0.74661922    -0.06000
C1138       C  0.05539094  0.60189177  0.74089720    -0.00100
C1139       C  0.03536591  0.62503513  0.76944365    -0.08600
C1140       C  0.04603734  0.60835346  0.80245976    -0.06000
C1141       C  0.07607458  0.56973506  0.80833687    -0.00100
C1142       C  0.09218104  0.54396188  0.77968486    -0.08500
C1143       C  0.12095894  0.49947186  0.78345331     0.61800
H1144       H  0.09543634  0.54228297  0.72469500     0.12500
H1145       H  0.03219555  0.62704369  0.82423318     0.12500
C1146       C  0.00447725  0.66821752  0.76566164     0.62100
F1147       F  0.12821715  0.47768437  0.75236754    -0.23100
F1148       F  0.09712852  0.46834930  0.80438992    -0.20400
F1149       F  0.16495666  0.50958694  0.79723246    -0.20100
F1150       F  0.96468735  0.65754079  0.74654387    -0.20200
F1151       F  0.02978066  0.70353975  0.74982487    -0.20500
F1152       F  0.98910137  0.68496139  0.79688693    -0.23200
C1153       C  0.21338876  0.59806206  0.51331027    -0.06000
C1154       C  0.25093610  0.57270228  0.52748174    -0.00100
C1155       C  0.24815744  0.55850556  0.56205219    -0.08600
C1156       C  0.20909298  0.57332951  0.58189901    -0.06000
C1157       C  0.17268405  0.60156421  0.56823463    -0.00100
C1158       C  0.17406429  0.61242842  0.53261631    -0.08500
C1159       C  0.13603161  0.64109029  0.51465645     0.61800
H1160       H  0.21546974  0.60710585  0.48657065     0.12500
H1161       H  0.20805721  0.56471312  0.60881040     0.12500
C1162       C  0.28721033  0.52962677  0.57819993     0.62100
F1163       F  0.13812994  0.63662070  0.47953993    -0.23100
F1164       F  0.14249501  0.68779471  0.52207333    -0.20400
F1165       F  0.09132940  0.62666941  0.52475583    -0.20100
F1166       F  0.33036004  0.55189200  0.57390125    -0.20200
F1167       F  0.28885361  0.48618426  0.56294282    -0.20500
F1168       F  0.27996555  0.52309979  0.61284874    -0.23200
C1169       C  0.07129454  0.83655223  0.53908094    -0.06000
C1170       C  0.04824032  0.79790554  0.52473607    -0.00100
C1171       C  0.03836562  0.79729831  0.48949419    -0.08600
C1172       C  0.05579668  0.83391697  0.46906757    -0.06000
C1173       C  0.08417664  0.87025491  0.48260547    -0.00100
C1174       C  0.08994233  0.87281424  0.51870868    -0.08500
C1175       C  0.11755127  0.91167904  0.53601352     0.61800
H1176       H  0.07672330  0.83679735  0.56647223     0.12500
H1177       H  0.05008836  0.83220051  0.44177259     0.12500
C1178       C  0.01177742  0.75677888  0.47343255     0.62100
F1179       F  0.10916583  0.91280865  0.57083615    -0.23100
F1180       F  0.10446467  0.95453670  0.52273301    -0.20400
F1181       F  0.16552889  0.90468222  0.53118637    -0.20100
F1182       F  0.96718665  0.75318670  0.48783072    -0.20200
F1183       F  0.03631854  0.71571986  0.47907101    -0.20500
F1184       F  0.00627190  0.76245682  0.43853081    -0.23200
loop_ 
_geom_bond_atom_site_label_1 
_geom_bond_atom_site_label_2 
_geom_bond_distance 
_geom_bond_site_symmetry_2 
_ccdc_geom_bond_type 
O1           Ni7   1.935       .  S
O1           C22   1.279       .  A
O2          Ni25   1.894       .  S
O2           C11   1.266       .  A
O3           Ni7   1.885       .  S
O3          Ni25   1.872       .  S
O3          Ni19   1.896       .  S
O3           H26   0.966       .  S
C4           O21   1.272       .  A
C4           O13   1.279       .  A
C4         C1109   1.495       .  S
O5          Ni24   1.943       .  S
O5           C11   1.274   1_655  A
O6          Ni24   1.897       .  S
O6            C8   1.267       .  A
Ni7          O10   1.931       .  S
Ni7          O12   1.926       .  S
C8           O18   1.286       .  A
C8         C1093   1.486       .  S
O9          Ni25   1.918       .  S
O9           C15   1.283       .  A
O10          C15   1.283       .  A
C11        C1170   1.476       .  S
O12          C14   1.273       .  A
O13         Ni24   1.930       .  S
C14          O20   1.266       .  A
C14        C1157   1.503       .  S
C15        C1122   1.488       .  S
H16          O17   0.966       .  S
O17         Ni25   1.925       .  S
O17         Ni19   1.906       .  S
O17         Ni24   1.897   1_455  S
O18         Ni19   1.963   1_655  S
Ni19         O23   1.913       .  S
Ni19         O21   1.930   1_455  S
O20         Ni25   1.919       .  S
C22          O23   1.277       .  A
C22        C1138   1.499       .  S
O27         Ni33   1.911       .  S
O27          C48   1.269       .  A
O28         Ni51   1.906       .  S
O28          C37   1.266   1_556  A
O29         Ni33   1.896       .  S
O29         Ni51   1.874       .  S
O29         Ni45   1.898       .  S
O29          H52   0.966       .  S
C30          O47   1.269       .  A
C30          O39   1.270       .  A
C30        C1013   1.496       .  S
O31         Ni50   1.931       .  S
O31          C37   1.270   1_556  A
O32         Ni50   1.882       .  S
O32          C34   1.267       .  A
Ni33         O36   1.924       .  S
Ni33         O38   1.910       .  S
C34          O44   1.285       .  A
C34        C1029   1.475       .  S
O35         Ni51   1.907       .  S
O35          C41   1.279       .  A
O36          C41   1.278       .  A
C37        C1074   1.486       .  S
O38          C40   1.268       .  A
O39         Ni50   1.916       .  S
C40          O46   1.269       .  A
C40        C1058   1.495       .  S
C41        C1042   1.470       .  S
H42          O43   0.967       .  S
O43         Ni51   1.938       .  S
O43         Ni45   1.940       .  S
O43         Ni50   1.915       .  S
O44         Ni45   1.964       .  S
Ni45         O49   1.929       .  S
Ni45         O47   1.921       .  S
O46         Ni51   1.927       .  S
C48          O49   1.275       .  A
C48        C1141   1.504       .  S
O53         Ni59   1.928       .  S
O53          C74   1.275       .  A
O54         Ni77   1.891       .  S
O54          C63   1.263       .  A
O55         Ni59   1.887       .  S
O55         Ni77   1.873       .  S
O55         Ni71   1.886       .  S
O55          H78   0.967       .  S
C56          O73   1.266       .  A
C56          O65   1.280       .  A
C56         C930   1.496       .  S
O57         Ni76   1.951       .  S
O57          C63   1.275       .  A
O58         Ni76   1.879       .  S
O58          C60   1.267       .  A
Ni59         O62   1.919       .  S
Ni59         O64   1.920       .  S
C60          O70   1.288       .  A
C60         C949   1.490       .  S
O61         Ni77   1.924       .  S
O61          C67   1.283       .  A
O62          C67   1.281       .  A
C63         C997   1.481       .  S
O64          C66   1.270       .  A
O65         Ni76   1.953       .  S
C66          O72   1.267       .  A
C66         C978   1.501       .  S
C67        C1125   1.473       .  S
H68          O69   0.966       .  S
O69         Ni77   1.940       .  S
O69         Ni71   1.927       .  S
O69         Ni76   1.915       .  S
O70         Ni71   1.972       .  S
Ni71         O75   1.915       .  S
Ni71         O73   1.916       .  S
O72         Ni77   1.924       .  S
C74          O75   1.276       .  A
C74         C965   1.492       .  S
O79         Ni85   1.908       .  S
O79         C100   1.268       .  A
O80        Ni103   1.918       .  S
O80          C89   1.271       .  A
O81         Ni85   1.888       .  S
O81        Ni103   1.877       .  S
O81         Ni97   1.895   1_565  S
O81         H104   0.966       .  S
C82          O99   1.268       .  A
C82          O91   1.273       .  A
C82         C885   1.501       .  S
O83        Ni102   1.939       .  S
O83          C89   1.272   1_545  A
O84        Ni102   1.889       .  S
O84          C86   1.270       .  A
Ni85         O88   1.907       .  S
Ni85         O90   1.909       .  S
C86          O96   1.287       .  A
C86         C866   1.484       .  S
O87        Ni103   1.925       .  S
O87          C93   1.284       .  A
O88          C93   1.276       .  A
C89         C901   1.492   1_556  S
O90          C92   1.270       .  A
O91        Ni102   1.940       .  S
C92          O98   1.277       .  A
C92         C914   1.517       .  S
C93        C1045   1.474       .  S
H94          O95   0.965       .  S
O95        Ni103   1.953   1_545  S
O95         Ni97   1.943       .  S
O95        Ni102   1.926       .  S
O96         Ni97   1.976       .  S
Ni97        O101   1.931       .  S
Ni97         O99   1.918       .  S
O98        Ni103   1.948       .  S
C100        O101   1.275   1_565  A
C100        C962   1.500       .  S
O105       Ni111   1.921       .  S
O105        C126   1.273       .  A
O106       Ni129   1.897       .  S
O106        C115   1.264       .  A
O107       Ni111   1.883       .  S
O107       Ni129   1.879       .  S
O107       Ni123   1.891       .  S
O107        H130   0.966       .  S
C108        O125   1.267       .  A
C108        O117   1.277       .  A
C108        C946   1.491       .  S
O109       Ni128   1.942       .  S
O109        C115   1.271       .  A
O110       Ni128   1.889       .  S
O110        C112   1.268       .  A
Ni111       O114   1.912       .  S
Ni111       O116   1.906       .  S
C112        O122   1.284       .  A
C112       C1106   1.489       .  S
O113       Ni129   1.920       .  S
O113        C119   1.278       .  A
O114        C119   1.280       .  A
C115        C834   1.487       .  S
O116        C118   1.269       .  A
O117       Ni128   1.932       .  S
C118        O124   1.273       .  A
C118        C850   1.495       .  S
C119        C802   1.465       .  S
H120        O121   0.965       .  S
O121       Ni129   1.933       .  S
O121       Ni123   1.935       .  S
O121       Ni128   1.922       .  S
O122       Ni123   1.972       .  S
Ni123       O127   1.920       .  S
Ni123       O125   1.915       .  S
O124       Ni129   1.931       .  S
C126        O127   1.275       .  A
C126        C818   1.499       .  S
O131       Ni137   1.919       .  S
O131        C152   1.274       .  A
O132       Ni155   1.895       .  S
O132        C141   1.263       .  A
O133       Ni137   1.890       .  S
O133       Ni155   1.869       .  S
O133       Ni149   1.898       .  S
O133        H156   0.966       .  S
C134        O151   1.274       .  A
C134        O143   1.279       .  A
C134       C1026   1.482       .  S
O135       Ni154   1.954       .  S
O135        C141   1.274       .  A
O136       Ni154   1.885       .  S
O136        C138   1.267       .  A
Ni137       O140   1.928       .  S
Ni137       O142   1.919       .  S
C138        O148   1.285       .  A
C138        C882   1.482       .  S
O139       Ni155   1.904       .  S
O139        C145   1.277       .  A
O140        C145   1.282       .  A
C141        C770   1.496   1_556  S
O142        C144   1.266       .  A
O143       Ni154   1.934       .  S
C144        O150   1.271       .  A
C144        C754   1.507       .  S
C145        C786   1.460       .  S
H146        O147   0.966       .  S
O147       Ni155   1.918       .  S
O147       Ni149   1.921       .  S
O147       Ni154   1.907       .  S
O148       Ni149   1.966       .  S
Ni149       O153   1.931       .  S
Ni149       O151   1.926       .  S
O150       Ni155   1.919       .  S
C152        O153   1.280       .  A
C152        C821   1.506       .  S
O157       Ni163   1.912       .  S
O157        C178   1.265       .  A
O158       Ni181   1.917       .  S
O158        C167   1.269       .  A
O159       Ni163   1.896       .  S
O159       Ni181   1.892       .  S
O159       Ni175   1.883       .  S
O159        H182   0.967       .  S
C160        O177   1.263       .  A
C160        O169   1.272       .  A
C160       C1090   1.485       .  S
O161       Ni180   1.935   1_545  S
O161        C167   1.270       .  A
O162       Ni180   1.896       .  S
O162        C164   1.270       .  A
Ni163       O166   1.923       .  S
Ni163       O168   1.893       .  S
C164        O174   1.281   1_565  A
C164        C933   1.480       .  S
O165       Ni181   1.909       .  S
O165        C171   1.279       .  A
O166        C171   1.277       .  A
C167        C738   1.489       .  S
O168        C170   1.261       .  A
O169       Ni180   1.929       .  S
C170        O176   1.273       .  A
C170        C725   1.493       .  S
C171        C805   1.469       .  S
H172        O173   0.965       .  S
O173       Ni181   1.944       .  S
O173       Ni175   1.951       .  S
O173       Ni180   1.930   1_545  S
O174       Ni175   1.962       .  S
Ni175       O179   1.926       .  S
Ni175       O177   1.904   1_545  S
O176       Ni181   1.950       .  S
C178        O179   1.270       .  A
C178        C709   1.497       .  S
O183       Ni189   1.929       .  S
O183        C204   1.278       .  A
O184       Ni207   1.900       .  S
O184        C193   1.267       .  A
O185       Ni189   1.871       .  S
O185       Ni207   1.869       .  S
O185       Ni201   1.884   1_655  S
O185        H208   0.967       .  S
C186        O203   1.269       .  A
C186        O195   1.278       .  A
C186        C869   1.491       .  S
O187       Ni206   1.943       .  S
O187        C193   1.275   1_455  A
O188       Ni206   1.908       .  S
O188        C190   1.272       .  A
Ni189       O192   1.924       .  S
Ni189       O194   1.920       .  S
C190        O200   1.285       .  A
C190       C1010   1.499       .  S
O191       Ni207   1.922       .  S
O191        C197   1.284       .  A
O192        C197   1.284       .  A
C193        C674   1.483   1_556  S
O194        C196   1.268       .  A
O195       Ni206   1.944       .  S
C196        O202   1.270       .  A
C196        C690   1.495       .  S
C197        C789   1.487       .  S
H198        O199   0.967       .  S
O199       Ni207   1.934       .  S
O199       Ni201   1.910   1_655  S
O199       Ni206   1.900   1_655  S
O200       Ni201   1.964       .  S
Ni201       O205   1.912   1_455  S
Ni201       O203   1.922       .  S
O202       Ni207   1.915       .  S
C204        O205   1.279       .  A
C204        C706   1.489       .  S
O209       Ni215   1.946       .  S
O209        C230   1.274       .  A
O210       Ni233   1.936       .  S
O210        C219   1.283       .  A
O211       Ni215   1.915       .  S
O211       Ni233   1.932       .  S
O211       Ni227   1.938       .  S
O211        H234   0.967       .  S
C212        O229   1.281       .  A
C212        O221   1.281       .  A
C212        C642   1.468       .  S
O213       Ni232   1.913       .  S
O213        C219   1.267       .  A
O214       Ni232   1.906       .  S
O214        C216   1.267       .  A
Ni215       O218   1.935       .  S
Ni215       O220   1.896       .  S
C216        O226   1.272       .  A
C216        C677   1.502       .  S
O217       Ni233   1.923       .  S
O217        C223   1.270       .  A
O218        C223   1.275       .  A
C219        C658   1.503       .  S
O220        C222   1.271       .  A
O221       Ni232   1.927       .  S
C222        O228   1.287       .  A
C222        C629   1.492       .  S
C223        C610   1.488       .  S
H224        O225   0.966       .  S
O225       Ni233   1.890       .  S
O225       Ni227   1.865       .  S
O225       Ni232   1.876       .  S
O226       Ni227   1.936       .  S
Ni227       O231   1.912       .  S
Ni227       O229   1.910       .  S
O228       Ni233   1.968       .  S
C230        O231   1.269       .  A
C230        C757   1.499       .  S
O235       Ni241   1.943       .  S
O235        C256   1.274   1_455  A
O236       Ni259   1.915       .  S
O236        C245   1.282   1_455  A
O237       Ni241   1.890       .  S
O237       Ni259   1.907       .  S
O237       Ni253   1.918   1_455  S
O237        H260   0.965   1_455  S
C238        O255   1.282       .  A
C238        O247   1.284       .  A
C238        C594   1.471       .  S
O239       Ni258   1.931       .  S
O239        C245   1.275       .  A
O240       Ni258   1.917       .  S
O240        C242   1.271       .  A
Ni241       O244   1.924       .  S
Ni241       O246   1.890       .  S
C242        O252   1.266       .  A
C242        C837   1.505       .  S
O243       Ni259   1.935       .  S
O243        C249   1.274       .  A
O244        C249   1.278       .  A
C245        C661   1.494       .  S
O246        C248   1.267       .  A
O247       Ni258   1.931       .  S
C248        O254   1.284       .  A
C248        C562   1.496       .  S
C249        C578   1.489       .  S
H250        O251   0.966       .  S
O251       Ni259   1.889   1_655  S
O251       Ni253   1.869       .  S
O251       Ni258   1.876       .  S
O252       Ni253   1.921       .  S
Ni253       O257   1.900       .  S
Ni253       O255   1.907       .  S
O254       Ni259   1.966       .  S
C256        O257   1.268       .  A
C256        C722   1.478       .  S
O261       Ni267   1.929   1_545  S
O261        C282   1.270       .  A
O262       Ni285   1.928       .  S
O262        C271   1.273       .  A
O263       Ni267   1.922   1_545  S
O263       Ni285   1.938       .  S
O263       Ni279   1.950       .  S
O263        H286   0.968       .  S
C264        O281   1.284       .  A
C264        O273   1.274       .  A
C264        C645   1.478       .  S
O265       Ni284   1.904       .  S
O265        C271   1.266       .  A
O266       Ni284   1.906       .  S
O266        C268   1.268       .  A
Ni267       O270   1.934       .  S
Ni267       O272   1.879       .  S
C268        O278   1.272       .  A
C268        C773   1.505       .  S
O269       Ni285   1.903   1_565  S
O269        C275   1.262       .  A
O270        C275   1.272       .  A
C271        C549   1.492       .  S
O272        C274   1.268       .  A
O273       Ni284   1.905       .  S
C274        O280   1.289       .  A
C274        C514   1.477       .  S
C275        C530   1.485       .  S
H276        O277   0.970       .  S
O277       Ni285   1.889       .  S
O277       Ni279   1.873       .  S
O277       Ni284   1.891       .  S
O278       Ni279   1.936       .  S
Ni279       O283   1.908       .  S
Ni279       O281   1.923       .  S
O280       Ni285   1.980   1_565  S
C282        O283   1.268       .  A
C282        C693   1.482       .  S
O287       Ni293   1.943       .  S
O287        C308   1.274       .  A
O288       Ni311   1.911       .  S
O288        C297   1.276       .  A
O289       Ni293   1.893       .  S
O289       Ni311   1.908       .  S
O289       Ni305   1.918       .  S
O289        H312   0.966       .  S
C290        O307   1.280       .  A
C290        O299   1.283       .  A
C290        C597   1.469       .  S
O291       Ni310   1.927       .  S
O291        C297   1.275       .  A
O292       Ni310   1.914       .  S
O292        C294   1.267       .  A
Ni293       O296   1.930       .  S
Ni293       O298   1.898       .  S
C294        O304   1.273       .  A
C294        C741   1.499       .  S
O295       Ni311   1.926       .  S
O295        C301   1.272       .  A
O296        C301   1.277       .  A
C297        C546   1.478       .  S
O298        C300   1.270       .  A
O299       Ni310   1.921       .  S
C300        O306   1.280       .  A
C300        C498   1.494       .  S
C301        C485   1.480       .  S
H302        O303   0.966       .  S
O303       Ni311   1.886       .  S
O303       Ni305   1.876       .  S
O303       Ni310   1.873       .  S
O304       Ni305   1.927       .  S
Ni305       O309   1.904       .  S
Ni305       O307   1.912       .  S
O306       Ni311   1.954       .  S
C308        O309   1.268       .  A
C308        C853   1.477       .  S
O313       Ni319   1.952       .  S
O313        C334   1.275       .  A
O314       Ni337   1.930       .  S
O314        C323   1.279       .  A
O315       Ni319   1.910       .  S
O315       Ni337   1.925       .  S
O315       Ni331   1.926       .  S
O315        H338   0.966       .  S
C316        O333   1.278       .  A
C316        O325   1.281       .  A
C316        C450   1.464       .  S
O317       Ni336   1.925       .  S
O317        C323   1.274       .  A
O318       Ni336   1.913       .  S
O318        C320   1.267       .  A
Ni319       O322   1.930       .  S
Ni319       O324   1.895       .  S
C320        O330   1.272       .  A
C320       C1077   1.505       .  S
O321       Ni337   1.935       .  S
O321        C327   1.275       .  A
O322        C327   1.276       .  A
C323        C466   1.502       .  S
O324        C326   1.268       .  A
O325       Ni336   1.927       .  S
C326        O332   1.280       .  A
C326        C533   1.473       .  S
C327        C626   1.496       .  S
H328        O329   0.966       .  S
O329       Ni337   1.895       .  S
O329       Ni331   1.879       .  S
O329       Ni336   1.888       .  S
O330       Ni331   1.924       .  S
Ni331       O335   1.905       .  S
Ni331       O333   1.906       .  S
O332       Ni337   1.947       .  S
C334        O335   1.267       .  A
C334        C917   1.493       .  S
O339       Ni345   1.929       .  S
O339        C360   1.268       .  A
O340       Ni363   1.936       .  S
O340        C349   1.279       .  A
O341       Ni345   1.926       .  S
O341       Ni363   1.950       .  S
O341       Ni357   1.951       .  S
O341        H364   0.965       .  S
C342        O359   1.279       .  A
C342        O351   1.281       .  A
C342        C437   1.467       .  S
O343       Ni362   1.912       .  S
O343        C349   1.270       .  A
O344       Ni362   1.906       .  S
O344        C346   1.268       .  A
Ni345       O348   1.916       .  S
Ni345       O350   1.881       .  S
C346        O356   1.274       .  A
C346        C994   1.503       .  S
O347       Ni363   1.926       .  S
O347        C353   1.269       .  A
O348        C353   1.267       .  A
C349        C469   1.508       .  S
O350        C352   1.270       .  A
O351       Ni362   1.921       .  S
C352        O358   1.287       .  A
C352        C581   1.483       .  S
C353        C501   1.496       .  S
H354        O355   0.967       .  S
O355       Ni363   1.892       .  S
O355       Ni357   1.869       .  S
O355       Ni362   1.883       .  S
O356       Ni357   1.939       .  S
Ni357       O361   1.908       .  S
Ni357       O359   1.911       .  S
O358       Ni363   1.969       .  S
C360        O361   1.268       .  A
C360       C1154   1.489       .  S
O365       Ni371   1.936       .  S
O365        C386   1.272   1_655  A
O366       Ni389   1.922       .  S
O366        C375   1.279       .  A
O367       Ni371   1.903   1_455  S
O367       Ni389   1.918       .  S
O367       Ni383   1.935       .  S
O367        H390   0.953       .  S
C368        O385   1.283       .  A
C368        O377   1.283       .  A
C368        C453   1.486       .  S
O369       Ni388   1.921       .  S
O369        C375   1.275       .  A
O370       Ni388   1.916       .  S
O370        C372   1.268       .  A
Ni371       O374   1.934       .  S
Ni371       O376   1.896       .  S
C372        O382   1.274       .  A
C372        C898   1.501       .  S
O373       Ni389   1.932   1_655  S
O373        C379   1.273       .  A
O374        C379   1.276       .  A
C375        C418   1.499       .  S
O376        C378   1.269       .  A
O377       Ni388   1.919       .  S
C378        O384   1.283       .  A
C378        C613   1.488       .  S
C379        C517   1.489       .  S
H380        O381   0.964       .  S
O381       Ni389   1.890       .  S
O381       Ni383   1.874       .  S
O381       Ni388   1.871       .  S
O382       Ni383   1.931       .  S
Ni383       O387   1.907       .  S
Ni383       O385   1.923       .  S
O384       Ni389   1.960   1_655  S
C386        O387   1.270       .  A
C386       C1061   1.479       .  S
O391       Ni397   1.934       .  S
O391        C412   1.269   1_545  A
O392       Ni415   1.930       .  S
O392        C401   1.273   1_545  A
O393       Ni397   1.923       .  S
O393       Ni415   1.948       .  S
O393       Ni409   1.943   1_545  S
O393        H416   0.965       .  S
C394        O411   1.278       .  A
C394        O403   1.280       .  A
C394        C434   1.476       .  S
O395       Ni414   1.908       .  S
O395        C401   1.267       .  A
O396       Ni414   1.898       .  S
O396        C398   1.267       .  A
Ni397       O400   1.917       .  S
Ni397       O402   1.894       .  S
C398        O408   1.273       .  A
C398       C1173   1.501       .  S
O399       Ni415   1.924       .  S
O399        C405   1.270       .  A
O400        C405   1.269       .  A
C401        C421   1.504       .  S
O402        C404   1.270       .  A
O403       Ni414   1.917       .  S
C404        O410   1.278       .  A
C404        C482   1.473       .  S
C405        C565   1.495       .  S
H406        O407   0.967       .  S
O407       Ni415   1.896   1_565  S
O407       Ni409   1.881       .  S
O407       Ni414   1.885       .  S
O408       Ni409   1.938       .  S
Ni409       O413   1.913       .  S
Ni409       O411   1.913       .  S
O410       Ni415   1.947       .  S
C412        O413   1.267       .  A
C412        C981   1.485       .  S
C417        C418   1.411       .  A
C417        C422   1.410       .  A
C417        H424   1.082       .  S
C418        C419   1.418       .  A
C419        C420   1.411       .  A
C419        C426   1.521       .  S
C420        C421   1.415       .  A
C420        H425   1.081       .  S
C421        C422   1.421       .  A
C422        C423   1.521   1_565  S
C423        F427   1.385       .  S
C423        F428   1.383       .  S
C423        F429   1.383       .  S
C426        F430   1.384       .  S
C426        F431   1.383   1_455  S
C426        F432   1.385       .  S
C433        C434   1.406       .  A
C433        C438   1.400       .  A
C433        H440   1.083       .  S
C434        C435   1.419       .  A
C435        C436   1.402       .  A
C435        C442   1.520       .  S
C436        C437   1.402       .  A
C436        H441   1.084       .  S
C437        C438   1.413       .  A
C438        C439   1.519       .  S
C439        F443   1.385       .  S
C439        F444   1.377       .  S
C439        F445   1.383       .  S
C442        F446   1.381       .  S
C442        F447   1.384       .  S
C442        F448   1.385       .  S
C449        C450   1.403       .  A
C449        C454   1.405       .  A
C449        H456   1.084       .  S
C450        C451   1.407       .  A
C451        C452   1.398       .  A
C451        C458   1.520       .  S
C452        C453   1.411       .  A
C452        H457   1.080       .  S
C453        C454   1.420       .  A
C454        C455   1.517       .  S
C455        F459   1.385       .  S
C455        F460   1.382       .  S
C455        F461   1.381       .  S
C458        F462   1.380       .  S
C458        F463   1.383       .  S
C458        F464   1.385       .  S
C465        C466   1.412       .  A
C465        C470   1.414       .  A
C465        H472   1.083       .  S
C466        C467   1.418       .  A
C467        C468   1.411       .  A
C467        C474   1.521       .  S
C468        C469   1.415       .  A
C468        H473   1.081       .  S
C469        C470   1.420       .  A
C470        C471   1.519       .  S
C471        F475   1.384       .  S
C471        F476   1.383       .  S
C471        F477   1.384       .  S
C474        F478   1.384       .  S
C474        F479   1.383       .  S
C474        F480   1.385       .  S
C481        C482   1.404       .  A
C481        C486   1.404       .  A
C481        H488   1.085       .  S
C482        C483   1.416       .  A
C483        C484   1.409       .  A
C483        C490   1.516       .  S
C484        C485   1.406       .  A
C484        H489   1.084       .  S
C485        C486   1.411       .  A
C486        C487   1.512       .  S
C487        F491   1.385   1_545  S
C487        F492   1.382       .  S
C487        F493   1.383       .  S
C490        F494   1.382       .  S
C490        F495   1.383       .  S
C490        F496   1.383       .  S
C497        C498   1.403       .  A
C497        C502   1.403       .  A
C497        H504   1.083       .  S
C498        C499   1.421       .  A
C499        C500   1.419       .  A
C499        C506   1.516       .  S
C500        C501   1.409       .  A
C500        H505   1.083       .  S
C501        C502   1.424       .  A
C502        C503   1.524       .  S
C503        F507   1.385       .  S
C503        F508   1.383       .  S
C503        F509   1.378       .  S
C506        F510   1.383       .  S
C506        F511   1.383       .  S
C506        F512   1.385       .  S
C513        C514   1.401       .  A
C513        C518   1.408       .  A
C513        H520   1.084       .  S
C514        C515   1.417   1_565  A
C515        C516   1.416   1_545  A
C515        C522   1.516       .  S
C516        C517   1.404       .  A
C516        H521   1.083   1_565  S
C517        C518   1.418       .  A
C518        C519   1.513       .  S
C519        F523   1.384       .  S
C519        F524   1.383       .  S
C519        F525   1.382       .  S
C522        F526   1.383       .  S
C522        F527   1.380       .  S
C522        F528   1.384       .  S
C529        C530   1.403       .  A
C529        C534   1.401       .  A
C529        H536   1.085       .  S
C530        C531   1.420       .  A
C531        C532   1.414       .  A
C531        C538   1.520       .  S
C532        C533   1.406       .  A
C532        H537   1.084       .  S
C533        C534   1.415       .  A
C534        C535   1.516       .  S
C535        F539   1.383       .  S
C535        F540   1.383       .  S
C535        F541   1.383       .  S
C538        F542   1.384       .  S
C538        F543   1.382       .  S
C538        F544   1.385       .  S
C545        C546   1.406       .  A
C545        C550   1.409       .  A
C545        H552   1.084       .  S
C546        C547   1.412       .  A
C547        C548   1.406       .  A
C547        C554   1.521       .  S
C548        C549   1.412       .  A
C548        H553   1.082       .  S
C549        C550   1.417       .  A
C550        C551   1.517   1_545  S
C551        F555   1.385       .  S
C551        F556   1.382       .  S
C551        F557   1.383       .  S
C554        F558   1.384       .  S
C554        F559   1.383       .  S
C554        F560   1.384       .  S
C561        C562   1.405       .  A
C561        C566   1.401       .  A
C561        H568   1.083       .  S
C562        C563   1.419       .  A
C563        C564   1.420       .  A
C563        C570   1.514       .  S
C564        C565   1.410       .  A
C564        H569   1.083       .  S
C565        C566   1.424       .  A
C566        C567   1.524       .  S
C567        F571   1.385       .  S
C567        F572   1.378       .  S
C567        F573   1.383       .  S
C570        F574   1.383       .  S
C570        F575   1.382   1_455  S
C570        F576   1.385   1_455  S
C577        C578   1.414       .  A
C577        C582   1.418       .  A
C577        H584   1.083       .  S
C578        C579   1.413       .  A
C579        C580   1.403       .  A
C579        C586   1.517       .  S
C580        C581   1.407       .  A
C580        H585   1.085       .  S
C581        C582   1.411       .  A
C582        C583   1.515       .  S
C583        F587   1.384       .  S
C583        F588   1.380       .  S
C583        F589   1.383       .  S
C586        F590   1.382       .  S
C586        F591   1.384       .  S
C586        F592   1.379       .  S
C593        C594   1.409       .  A
C593        C598   1.404       .  A
C593        H600   1.084       .  S
C594        C595   1.412       .  A
C595        C596   1.397       .  A
C595        C602   1.517       .  S
C596        C597   1.403       .  A
C596        H601   1.082       .  S
C597        C598   1.413       .  A
C598        C599   1.519       .  S
C599        F603   1.385       .  S
C599        F604   1.383       .  S
C599        F605   1.383       .  S
C602        F606   1.379       .  S
C602        F607   1.384       .  S
C602        F608   1.385       .  S
C609        C610   1.404       .  A
C609        C614   1.419       .  A
C609        H616   1.083       .  S
C610        C611   1.416       .  A
C611        C612   1.402       .  A
C611        C618   1.514       .  S
C612        C613   1.401       .  A
C612        H617   1.080       .  S
C613        C614   1.421       .  A
C614        C615   1.514   1_655  S
C615        F619   1.384       .  S
C615        F620   1.382       .  S
C615        F621   1.381       .  S
C618        F622   1.376       .  S
C618        F623   1.382       .  S
C618        F624   1.385       .  S
C625        C626   1.410       .  A
C625        C630   1.417       .  A
C625        H632   1.084       .  S
C626        C627   1.417       .  A
C627        C628   1.406       .  A
C627        C634   1.519       .  S
C628        C629   1.409       .  A
C628        H633   1.084       .  S
C629        C630   1.420       .  A
C630        C631   1.515       .  S
C631        F635   1.383       .  S
C631        F636   1.380       .  S
C631        F637   1.383       .  S
C634        F638   1.383       .  S
C634        F639   1.384       .  S
C634        F640   1.385       .  S
C641        C642   1.396       .  A
C641        C646   1.400       .  A
C641        H648   1.083       .  S
C642        C643   1.415       .  A
C643        C644   1.401       .  A
C643        C650   1.515       .  S
C644        C645   1.402       .  A
C644        H649   1.081       .  S
C645        C646   1.427       .  A
C646        C647   1.523       .  S
C647        F651   1.383       .  S
C647        F652   1.383       .  S
C647        F653   1.385       .  S
C650        F654   1.381       .  S
C650        F655   1.381       .  S
C650        F656   1.385       .  S
C657        C658   1.405       .  A
C657        C662   1.411       .  A
C657        H664   1.083       .  S
C658        C659   1.434       .  A
C659        C660   1.408       .  A
C659        C666   1.524   1_655  S
C660        C661   1.398       .  A
C660        H665   1.082   1_655  S
C661        C662   1.424       .  A
C662        C663   1.520       .  S
C663        F667   1.385       .  S
C663        F668   1.384       .  S
C663        F669   1.382       .  S
C666        F670   1.383       .  S
C666        F671   1.383   1_455  S
C666        F672   1.386       .  S
C673        C674   1.403   1_556  A
C673        C678   1.410   1_556  A
C673        H680   1.084       .  S
C674        C675   1.411       .  A
C675        C676   1.412       .  A
C675        C682   1.516   1_655  S
C676        C677   1.415       .  A
C676        H681   1.082       .  S
C677        C678   1.421       .  A
C678        C679   1.516   1_554  S
C679        F683   1.385       .  S
C679        F684   1.383   1_556  S
C679        F685   1.379       .  S
C682        F686   1.382       .  S
C682        F687   1.383   1_455  S
C682        F688   1.384       .  S
C689        C690   1.406       .  A
C689        C694   1.402   1_556  A
C689        H696   1.083       .  S
C690        C691   1.426       .  A
C691        C692   1.415       .  A
C691        C698   1.518       .  S
C692        C693   1.401   1_556  A
C692        H697   1.083       .  S
C693        C694   1.416       .  A
C694        C695   1.517       .  S
C695        F699   1.385       .  S
C695        F700   1.383       .  S
C695        F701   1.379       .  S
C698        F702   1.383       .  S
C698        F703   1.382       .  S
C698        F704   1.385       .  S
C705        C706   1.409       .  A
C705        C710   1.409       .  A
C705        H712   1.083       .  S
C706        C707   1.414       .  A
C707        C708   1.408       .  A
C707        C714   1.520   1_655  S
C708        C709   1.414       .  A
C708        H713   1.082       .  S
C709        C710   1.418       .  A
C710        C711   1.519   1_545  S
C711        F715   1.385       .  S
C711        F716   1.383       .  S
C711        F717   1.383       .  S
C714        F718   1.383       .  S
C714        F719   1.384   1_455  S
C714        F720   1.384       .  S
C721        C722   1.404       .  A
C721        C726   1.410       .  A
C721        H728   1.082       .  S
C722        C723   1.410       .  A
C723        C724   1.407       .  A
C723        C730   1.517   1_655  S
C724        C725   1.413       .  A
C724        H729   1.082       .  S
C725        C726   1.417       .  A
C726        C727   1.516       .  S
C727        F731   1.385       .  S
C727        F732   1.382       .  S
C727        F733   1.384       .  S
C730        F734   1.383       .  S
C730        F735   1.383       .  S
C730        F736   1.385       .  S
C737        C738   1.401       .  A
C737        C742   1.417       .  A
C737        H744   1.083       .  S
C738        C739   1.415       .  A
C739        C740   1.402       .  A
C739        C746   1.508       .  S
C740        C741   1.403       .  A
C740        H745   1.083       .  S
C741        C742   1.429       .  A
C742        C743   1.518       .  S
C743        F747   1.385       .  S
C743        F748   1.381       .  S
C743        F749   1.383       .  S
C746        F750   1.381       .  S
C746        F751   1.382       .  S
C746        F752   1.385       .  S
C753        C754   1.407       .  A
C753        C758   1.400   1_556  A
C753        H760   1.081       .  S
C754        C755   1.426       .  A
C755        C756   1.420       .  A
C755        C762   1.518       .  S
C756        C757   1.408   1_556  A
C756        H761   1.083       .  S
C757        C758   1.419       .  A
C758        C759   1.515       .  S
C759        F763   1.385       .  S
C759        F764   1.383       .  S
C759        F765   1.382       .  S
C762        F766   1.383       .  S
C762        F767   1.382       .  S
C762        F768   1.385       .  S
C769        C770   1.405   1_556  A
C769        C774   1.409   1_556  A
C769        H776   1.081       .  S
C770        C771   1.417       .  A
C771        C772   1.414       .  A
C771        C778   1.518       .  S
C772        C773   1.413       .  A
C772        H777   1.082       .  S
C773        C774   1.427       .  A
C774        C775   1.523       .  S
C775        F779   1.383   1_554  S
C775        F780   1.384   1_554  S
C775        F781   1.382       .  S
C778        F782   1.382       .  S
C778        F783   1.384       .  S
C778        F784   1.384       .  S
C785        C786   1.399       .  A
C785        C790   1.406       .  A
C785        H792   1.084       .  S
C786        C787   1.408       .  A
C787        C788   1.399       .  A
C787        C794   1.521       .  S
C788        C789   1.411       .  A
C788        H793   1.082       .  S
C789        C790   1.420       .  A
C790        C791   1.515       .  S
C791        F795   1.384       .  S
C791        F796   1.383       .  S
C791        F797   1.383       .  S
C794        F798   1.383       .  S
C794        F799   1.380       .  S
C794        F800   1.385       .  S
C801        C802   1.398       .  A
C801        C806   1.395       .  A
C801        H808   1.084       .  S
C802        C803   1.416       .  A
C803        C804   1.406       .  A
C803        C810   1.518       .  S
C804        C805   1.405       .  A
C804        H809   1.083       .  S
C805        C806   1.420       .  A
C806        C807   1.525       .  S
C807        F811   1.385       .  S
C807        F812   1.383       .  S
C807        F813   1.384       .  S
C810        F814   1.380       .  S
C810        F815   1.381       .  S
C810        F816   1.385       .  S
C817        C818   1.411       .  A
C817        C822   1.412       .  A
C817        H824   1.082       .  S
C818        C819   1.419       .  A
C819        C820   1.409       .  A
C819        C826   1.522       .  S
C820        C821   1.414       .  A
C820        H825   1.081       .  S
C821        C822   1.421       .  A
C822        C823   1.519       .  S
C823        F827   1.385       .  S
C823        F828   1.383       .  S
C823        F829   1.383       .  S
C826        F830   1.384       .  S
C826        F831   1.384       .  S
C826        F832   1.384       .  S
C833        C834   1.399       .  A
C833        C838   1.404       .  A
C833        H840   1.081       .  S
C834        C835   1.413       .  A
C835        C836   1.414       .  A
C835        C842   1.516       .  S
C836        C837   1.414       .  A
C836        H841   1.082       .  S
C837        C838   1.433       .  A
C838        C839   1.527       .  S
C839        F843   1.386       .  S
C839        F844   1.383       .  S
C839        F845   1.383       .  S
C842        F846   1.382       .  S
C842        F847   1.384       .  S
C842        F848   1.384       .  S
C849        C850   1.413       .  A
C849        C854   1.407       .  A
C849        H856   1.082       .  S
C850        C851   1.421       .  A
C851        C852   1.411       .  A
C851        C858   1.516       .  S
C852        C853   1.403       .  A
C852        H857   1.084       .  S
C853        C854   1.409       .  A
C854        C855   1.518       .  S
C855        F859   1.384       .  S
C855        F860   1.383       .  S
C855        F861   1.383       .  S
C858        F862   1.383       .  S
C858        F863   1.384       .  S
C858        F864   1.385       .  S
C865        C866   1.397       .  A
C865        C870   1.410       .  A
C865        H872   1.075       .  S
C866        C867   1.411       .  A
C867        C868   1.414       .  A
C867        C874   1.512   1_545  S
C868        C869   1.406       .  A
C868        H873   1.083       .  S
C869        C870   1.422       .  A
C870        C871   1.517       .  S
C871        F875   1.384       .  S
C871        F876   1.381       .  S
C871        F877   1.382       .  S
C874        F878   1.380       .  S
C874        F879   1.383       .  S
C874        F880   1.384       .  S
C881        C882   1.401       .  A
C881        C886   1.407       .  A
C881        H888   1.084       .  S
C882        C883   1.417       .  A
C883        C884   1.416       .  A
C883        C890   1.515       .  S
C884        C885   1.408       .  A
C884        H889   1.083       .  S
C885        C886   1.423       .  A
C886        C887   1.512       .  S
C887        F891   1.385       .  S
C887        F892   1.382       .  S
C887        F893   1.374       .  S
C890        F894   1.383       .  S
C890        F895   1.383       .  S
C890        F896   1.385       .  S
C897        C898   1.404       .  A
C897        C902   1.406       .  A
C897        H904   1.083       .  S
C898        C899   1.429       .  A
C899        C900   1.418       .  A
C899        C906   1.518       .  S
C900        C901   1.401       .  A
C900        H905   1.083       .  S
C901        C902   1.416       .  A
C902        C903   1.509   1_554  S
C903        F907   1.385       .  S
C903        F908   1.379       .  S
C903        F909   1.383   1_565  S
C906        F910   1.381       .  S
C906        F911   1.383   1_565  S
C906        F912   1.384   1_565  S
C913        C914   1.418       .  A
C913        C918   1.414       .  A
C913        H920   1.082       .  S
C914        C915   1.428   1_556  A
C915        C916   1.414       .  A
C915        C922   1.518       .  S
C916        C917   1.403       .  A
C916        H921   1.082       .  S
C917        C918   1.413   1_554  A
C918        C919   1.518       .  S
C919        F923   1.385       .  S
C919        F924   1.383       .  S
C919        F925   1.383       .  S
C922        F926   1.381       .  S
C922        F927   1.384       .  S
C922        F928   1.384       .  S
C929        C930   1.406       .  A
C929        C934   1.412   1_565  A
C929        H936   1.083   1_565  S
C930        C931   1.430       .  A
C931        C932   1.411       .  A
C931        C938   1.516       .  S
C932        C933   1.397       .  A
C932        H937   1.084       .  S
C933        C934   1.408   1_565  A
C934        C935   1.512       .  S
C935        F939   1.384       .  S
C935        F940   1.380       .  S
C935        F941   1.383       .  S
C938        F942   1.383       .  S
C938        F943   1.379       .  S
C938        F944   1.384       .  S
C945        C946   1.396       .  A
C945        C950   1.396       .  A
C945        H952   1.086       .  S
C946        C947   1.422       .  A
C947        C948   1.423       .  A
C947        C954   1.516       .  S
C948        C949   1.409       .  A
C948        H953   1.083       .  S
C949        C950   1.424       .  A
C950        C951   1.516       .  S
C951        F955   1.383       .  S
C951        F956   1.374       .  S
C951        F957   1.383       .  S
C954        F958   1.383       .  S
C954        F959   1.383       .  S
C954        F960   1.385       .  S
C961        C962   1.414       .  A
C961        C966   1.410       .  A
C961        H968   1.082       .  S
C962        C963   1.418       .  A
C963        C964   1.409       .  A
C963        C970   1.518   1_565  S
C964        C965   1.409       .  A
C964        H969   1.083       .  S
C965        C966   1.416       .  A
C966        C967   1.520       .  S
C967        F971   1.384       .  S
C967        F972   1.384       .  S
C967        F973   1.383       .  S
C970        F974   1.384       .  S
C970        F975   1.382       .  S
C970        F976   1.385       .  S
C977        C978   1.411       .  A
C977        C982   1.413       .  A
C977        H984   1.082       .  S
C978        C979   1.425       .  A
C979        C980   1.410       .  A
C979        C986   1.518       .  S
C980        C981   1.401       .  A
C980        H985   1.084       .  S
C981        C982   1.413       .  A
C982        C983   1.516   1_565  S
C983        F987   1.384       .  S
C983        F988   1.382   1_545  S
C983        F989   1.383       .  S
C986        F990   1.382       .  S
C986        F991   1.384       .  S
C986        F992   1.381       .  S
C993        C994   1.417       .  A
C993        C998   1.413       .  A
C993       H1000   1.082       .  S
C994        C995   1.423       .  A
C995        C996   1.409       .  A
C995       C1002   1.518       .  S
C996        C997   1.402       .  A
C996       H1001   1.084       .  S
C997        C998   1.409       .  A
C998        C999   1.517       .  S
C999       F1003   1.385       .  S
C999       F1004   1.383       .  S
C999       F1005   1.383       .  S
C1002      F1006   1.383       .  S
C1002      F1007   1.382       .  S
C1002      F1008   1.385       .  S
C1009      C1010   1.407       .  A
C1009      C1014   1.399       .  A
C1009      H1016   1.073       .  S
C1010      C1011   1.415       .  A
C1011      C1012   1.421       .  A
C1011      C1018   1.514       .  S
C1012      C1013   1.415       .  A
C1012      H1017   1.083       .  S
C1013      C1014   1.418       .  A
C1014      C1015   1.526       .  S
C1015      F1019   1.382   1_556  S
C1015      F1020   1.384       .  S
C1015      F1021   1.383       .  S
C1018      F1022   1.383       .  S
C1018      F1023   1.382       .  S
C1018      F1024   1.384       .  S
C1025      C1026   1.403       .  A
C1025      C1030   1.409       .  A
C1025      H1032   1.084       .  S
C1026      C1027   1.414       .  A
C1027      C1028   1.412       .  A
C1027      C1034   1.515       .  S
C1028      C1029   1.406       .  A
C1028      H1033   1.083       .  S
C1029      C1030   1.417       .  A
C1030      C1031   1.519       .  S
C1031      F1035   1.385       .  S
C1031      F1036   1.383       .  S
C1031      F1037   1.383       .  S
C1034      F1038   1.383       .  S
C1034      F1039   1.383       .  S
C1034      F1040   1.385       .  S
C1041      C1042   1.399       .  A
C1041      C1046   1.400       .  A
C1041      H1048   1.084       .  S
C1042      C1043   1.418       .  A
C1043      C1044   1.401       .  A
C1043      C1050   1.519       .  S
C1044      C1045   1.401       .  A
C1044      H1049   1.082       .  S
C1045      C1046   1.423       .  A
C1046      C1047   1.522       .  S
C1047      F1051   1.385       .  S
C1047      F1052   1.383       .  S
C1047      F1053   1.383       .  S
C1050      F1054   1.381       .  S
C1050      F1055   1.382       .  S
C1050      F1056   1.385       .  S
C1057      C1058   1.412       .  A
C1057      C1062   1.410       .  A
C1057      H1064   1.082       .  S
C1058      C1059   1.421   1_556  A
C1059      C1060   1.406       .  A
C1059      C1066   1.517       .  S
C1060      C1061   1.401       .  A
C1060      H1065   1.082       .  S
C1061      C1062   1.411   1_554  A
C1062      C1063   1.516       .  S
C1063      F1067   1.384       .  S
C1063      F1068   1.383       .  S
C1063      F1069   1.383   1_455  S
C1066      F1070   1.381       .  S
C1066      F1071   1.384       .  S
C1066      F1072   1.385       .  S
C1073      C1074   1.402       .  A
C1073      C1078   1.415       .  A
C1073      H1080   1.083       .  S
C1074      C1075   1.416       .  A
C1075      C1076   1.403       .  A
C1075      C1082   1.517   1_554  S
C1076      C1077   1.410       .  A
C1076      H1081   1.082       .  S
C1077      C1078   1.430       .  A
C1078      C1079   1.519       .  S
C1079      F1083   1.385       .  S
C1079      F1084   1.383       .  S
C1079      F1085   1.383       .  S
C1082      F1086   1.381       .  S
C1082      F1087   1.384       .  S
C1082      F1088   1.384       .  S
C1089      C1090   1.398       .  A
C1089      C1094   1.403       .  A
C1089      H1096   1.084       .  S
C1090      C1091   1.419       .  A
C1091      C1092   1.416       .  A
C1091      C1098   1.518   1_655  S
C1092      C1093   1.408       .  A
C1092      H1097   1.083   1_655  S
C1093      C1094   1.423       .  A
C1094      C1095   1.519       .  S
C1095      F1099   1.385       .  S
C1095      F1100   1.379       .  S
C1095      F1101   1.381       .  S
C1098      F1102   1.382   1_455  S
C1098      F1103   1.383   1_455  S
C1098      F1104   1.385       .  S
C1105      C1106   1.403       .  A
C1105      C1110   1.420       .  A
C1105      H1112   1.083       .  S
C1106      C1107   1.420       .  A
C1107      C1108   1.399       .  A
C1107      C1114   1.510       .  S
C1108      C1109   1.395       .  A
C1108      H1113   1.085       .  S
C1109      C1110   1.426       .  A
C1110      C1111   1.513       .  S
C1111      F1115   1.384       .  S
C1111      F1116   1.376       .  S
C1111      F1117   1.383       .  S
C1114      F1118   1.382       .  S
C1114      F1119   1.382       .  S
C1114      F1120   1.384       .  S
C1121      C1122   1.413       .  A
C1121      C1126   1.405       .  A
C1121      H1128   1.083       .  S
C1122      C1123   1.417       .  A
C1123      C1124   1.403       .  A
C1123      C1130   1.515       .  S
C1124      C1125   1.404       .  A
C1124      H1129   1.084       .  S
C1125      C1126   1.410       .  A
C1126      C1127   1.517       .  S
C1127      F1131   1.385       .  S
C1127      F1132   1.383       .  S
C1127      F1133   1.382       .  S
C1130      F1134   1.383       .  S
C1130      F1135   1.380       .  S
C1130      F1136   1.385       .  S
C1137      C1138   1.411       .  A
C1137      C1142   1.412       .  A
C1137      H1144   1.082       .  S
C1138      C1139   1.419       .  A
C1139      C1140   1.410       .  A
C1139      C1146   1.522       .  S
C1140      C1141   1.413       .  A
C1140      H1145   1.081       .  S
C1141      C1142   1.420       .  A
C1142      C1143   1.520       .  S
C1143      F1147   1.384       .  S
C1143      F1148   1.384       .  S
C1143      F1149   1.383       .  S
C1146      F1150   1.382   1_455  S
C1146      F1151   1.383       .  S
C1146      F1152   1.385   1_455  S
C1153      C1154   1.399       .  A
C1153      C1158   1.406       .  A
C1153      H1160   1.080       .  S
C1154      C1155   1.415       .  A
C1155      C1156   1.416       .  A
C1155      C1162   1.516       .  S
C1156      C1157   1.413       .  A
C1156      H1161   1.082       .  S
C1157      C1158   1.429       .  A
C1158      C1159   1.523       .  S
C1159      F1163   1.382       .  S
C1159      F1164   1.381       .  S
C1159      F1165   1.384       .  S
C1162      F1166   1.383       .  S
C1162      F1167   1.382       .  S
C1162      F1168   1.384       .  S
C1169      C1170   1.401       .  A
C1169      C1174   1.410       .  A
C1169      H1176   1.083       .  S
C1170      C1171   1.407       .  A
C1171      C1172   1.406       .  A
C1171      C1178   1.518       .  S
C1172      C1173   1.415       .  A
C1172      H1177   1.082       .  S
C1173      C1174   1.425       .  A
C1174      C1175   1.518       .  S
C1175      F1179   1.384       .  S
C1175      F1180   1.383       .  S
C1175      F1181   1.382       .  S
C1178      F1182   1.383   1_455  S
C1178      F1183   1.384       .  S
C1178      F1184   1.384       .  S
