geometry optimzed in LAMMPS
_audit_creation_date              2020-12-01 
_audit_creation_method            'lammps2cif' 
_symmetry_space_group_name_H-M    'P1' 
_symmetry_Int_Tables_number       1 
_symmetry_cell_setting            triclinic 
loop_ 
_symmetry_equiv_pos_as_xyz 
  x,y,z 
_cell_length_a                    33.67256289 
_cell_length_b                    33.32361973724774 
_cell_length_c                    53.997674760986015 
_cell_angle_alpha                 89.60179742065651 
_cell_angle_beta                  89.94193565511654 
_cell_angle_gamma                 90.20626500925532 
loop_ 
_atom_site_label 
_atom_site_type_symbol 
_atom_site_fract_x 
_atom_site_fract_y 
_atom_site_fract_z 
_atom_site_charge 
O1          O  0.09634665  0.83514131  0.52754905    -0.81100
O2          O  0.15114996  0.00488030  0.57571632    -0.65800
O3          O  0.11882617  0.89859570  0.55671089    -1.12400
C4          C  0.99360903  0.93654649  0.58175586     1.05700
O5          O  0.11372634  0.00543930  0.60990172    -0.79000
O6          O  0.08824371  0.93156968  0.61717483    -0.66600
Ni7        Ni  0.13348732  0.87994133  0.52467159     1.34900
C8          C  0.08353481  0.89571809  0.61023995     0.84500
O9          O  0.18949903  0.94232037  0.55584185    -0.79600
O10         O  0.17449213  0.91956479  0.51861102    -0.89900
C11         C  0.14473291  0.01633906  0.59803852     0.84100
O12         O  0.09454996  0.91665943  0.51288704    -0.68100
O13         O  0.01303740  0.95211435  0.59966769    -0.87300
C14         C  0.09505271  0.95457674  0.51670782     0.84900
C15         C  0.19897656  0.93550735  0.53353166     1.06500
H16         H  0.07020949  0.98267598  0.56012340     0.38300
O17         O  0.08057741  0.96202040  0.57089405    -1.10000
O18         O  0.06185180  0.88696999  0.59181179    -0.66700
Ni19       Ni  0.06304851  0.91099009  0.55928176     1.26300
O20         O  0.12111572  0.97116557  0.53100280    -0.66900
O21         O  0.00970186  0.92658330  0.56159581    -0.79200
C22         C  0.06170638  0.83064734  0.53679423     0.84300
O23         O  0.04437304  0.85919655  0.54797401    -0.66400
Ni24       Ni  0.06455401  0.97770014  0.60316399     1.27400
Ni25       Ni  0.13514638  0.95219091  0.56444513     1.26100
H26         H  0.12769816  0.87989147  0.56925918     0.38800
O27         O  0.42865370  0.18271532  0.72893352    -0.81100
O28         O  0.26940430  0.10531181  0.67854792    -0.65800
O29         O  0.37526592  0.13298651  0.70142222    -1.12400
C30         C  0.34878787  0.24733764  0.65212037     1.05700
O31         O  0.29092025  0.12030322  0.64081911    -0.79000
O32         O  0.35050511  0.16577484  0.62496099    -0.66600
Ni33       Ni  0.38851466  0.14051168  0.73520849     1.34900
C34         C  0.38011056  0.14586805  0.63243349     0.84500
O35         O  0.32185238  0.07205542  0.71218020    -0.79600
O36         O  0.35255276  0.09792225  0.74546283    -0.89900
C37         C  0.26659436  0.10193384  0.65480195     0.84100
O38         O  0.34834543  0.17969275  0.73856250    -0.68100
O39         O  0.31591117  0.23167427  0.64542084    -0.87300
C40         C  0.31153342  0.17716002  0.73352544     0.84900
C41         C  0.33282841  0.07003923  0.73481494     1.06500
H42         H  0.30875798  0.18971142  0.68512097     0.38300
O43         O  0.32317827  0.16992834  0.67580895    -1.10000
O44         O  0.39238033  0.14698863  0.65459165    -0.66700
Ni45       Ni  0.37723192  0.18013321  0.68152614     1.26300
O46         O  0.29670000  0.14925386  0.72001735    -0.66900
O47         O  0.37722596  0.22744916  0.66168403    -0.79200
C48         C  0.44667458  0.19521619  0.70941159     0.84300
O49         O  0.43212776  0.18943437  0.68803595    -0.66400
Ni50       Ni  0.30330413  0.17597038  0.64343916     1.27400
Ni51       Ni  0.32131962  0.11999322  0.69273748     1.26100
H52         H  0.39267220  0.11264770  0.69487709     0.38800
O53         O  0.38634271  0.48471937  0.60740556    -0.81100
O54         O  0.46316187  0.34327257  0.55913916    -0.65800
O55         O  0.44039708  0.45182852  0.57467471    -1.12400
C56         C  0.34525170  0.44440487  0.51302906     1.05700
O57         O  0.45365736  0.34600309  0.51846078    -0.79000
O58         O  0.45472811  0.42710652  0.51131950    -0.66600
Ni59       Ni  0.44059839  0.46852639  0.60830072     1.34900
C60         C  0.45369746  0.46385117  0.51739354     0.84500
O61         O  0.49722706  0.39654183  0.58789269    -0.79600
O62         O  0.49457444  0.45203697  0.61154664    -0.89900
C63         C  0.46751505  0.32847827  0.53774332     0.84100
O64         O  0.42266457  0.42055288  0.62381628    -0.68100
O65         O  0.37396613  0.42664194  0.50221432    -0.87300
C66         C  0.41005794  0.38858274  0.61413706     0.84900
C67         C  0.51161494  0.42050016  0.60375891     1.06500
H68         H  0.38538698  0.38242911  0.55281578     0.38300
O69         O  0.40591736  0.40025061  0.54670802    -1.10000
O70         O  0.42468841  0.47918507  0.52955520    -0.66700
Ni71       Ni  0.39285500  0.45445081  0.55587970     1.26300
O72         O  0.41829630  0.37770100  0.59236549    -0.66900
O73         O  0.34665929  0.45452400  0.53572225    -0.79200
C74         C  0.37159595  0.51010912  0.59258733     0.84300
O75         O  0.37816349  0.50721968  0.56918318    -0.66400
Ni76       Ni  0.41396379  0.38826361  0.51263812     1.27400
Ni77       Ni  0.45197971  0.39779879  0.56707730     1.26100
H78         H  0.46068796  0.46810877  0.56687979     0.38800
O79         O  0.27269574  0.65980528  0.63391732    -0.81100
O80         O  0.12457950  0.73483484  0.68902586    -0.65800
O81         O  0.22661975  0.69750260  0.66935001    -1.12400
C82         C  0.20171882  0.58521521  0.71846321     1.05700
O83         O  0.10532282  0.69283978  0.71884384    -0.79000
O84         O  0.18671908  0.69443318  0.73124706    -0.66600
Ni85       Ni  0.23856838  0.70549403  0.63494731     1.34900
C86         C  0.22422780  0.69258257  0.72759581     0.84500
O87         O  0.18806761  0.76868462  0.66958762    -0.79600
O88         O  0.20547971  0.75260870  0.63136696    -0.89900
C89         C  0.09861204  0.72247612  0.70431221     0.84100
O90         O  0.19601564  0.67140605  0.62614493    -0.68100
O91         O  0.18686171  0.61300608  0.73155279    -0.87300
C92         C  0.16036373  0.67695536  0.63262720     0.84900
C93         C  0.18955920  0.77641555  0.64676988     1.06500
H94         H  0.14764570  0.64756467  0.67912062     0.38300
O95         O  0.16630189  0.66110844  0.68975847    -1.10000
O96         O  0.24038658  0.66641859  0.71305844    -0.66700
Ni97       Ni  0.21910946  0.64413775  0.68188569     1.26300
O98         O  0.15073022  0.70308145  0.64860679    -0.66900
O99         O  0.21083763  0.59145051  0.69589161    -0.79200
C100        C  0.28374674  0.63093343  0.64775807     0.84300
O101        O  0.27077827  0.62610834  0.67005904    -0.66400
Ni102      Ni  0.14883994  0.65444154  0.72315885     1.27400
Ni103      Ni  0.17591469  0.71576151  0.67964270     1.26100
H104        H  0.24682937  0.71164462  0.67849650     0.38800
O105        O  0.62337036  0.00378381  0.60244325    -0.81100
O106        O  0.54531112  0.14929053  0.54503155    -0.65800
O107        O  0.58648565  0.04763910  0.56539488    -1.12400
C108        C  0.69987352  0.08032795  0.52187477     1.05700
O109        O  0.59259366  0.17647689  0.52165350    -0.79000
O110        O  0.59336146  0.09552682  0.50669946    -0.66600
Ni111      Ni  0.57439896  0.03156848  0.59836662     1.34900
C112        C  0.59562970  0.05743147  0.50979159     0.84500
O113        O  0.51321332  0.08160903  0.55999092    -0.79600
O114        O  0.52275319  0.05633082  0.59775485    -0.89900
C115        C  0.55938627  0.17880541  0.53288713     0.84100
O116        O  0.59960395  0.07777761  0.61122708    -0.68100
O117        O  0.67288710  0.09683138  0.50906452    -0.87300
C118        C  0.59203249  0.11360050  0.60503400     0.84900
C119        C  0.50021318  0.07080600  0.58096236     1.06500
H120        H  0.63144308  0.13074251  0.56193100     0.38300
O121        O  0.62149654  0.11240240  0.54962010    -1.10000
O122        O  0.62262550  0.04075998  0.52344155    -0.66700
Ni123      Ni  0.64023218  0.05884416  0.55622012     1.26300
O124        O  0.56875453  0.12178090  0.58727182    -0.66900
O125        O  0.69343656  0.07008808  0.54433591    -0.79200
C126        C  0.65247806  0.99225565  0.58934018     0.84300
O127        O  0.65838966  0.00577121  0.56714654    -0.66400
Ni128      Ni  0.63142089  0.13377736  0.51729995     1.27400
Ni129      Ni  0.56632198  0.09824125  0.55492371     1.26100
H130        H  0.57521219  0.02701598  0.55506562     0.38800
O131        O  0.78195786  0.86736690  0.63117224    -0.81100
O132        O  0.92666011  0.80503090  0.68019692    -0.65800
O133        O  0.81690830  0.81886284  0.66696263    -1.12400
C134        C  0.82361037  0.92134710  0.72377098     1.05700
O135        O  0.92383058  0.81416424  0.72087914    -0.79000
O136        O  0.84321658  0.81118592  0.72981903    -0.66600
Ni137      Ni  0.79813857  0.81275945  0.63412220     1.34900
C138        C  0.80625593  0.81090631  0.72490131     0.84500
O139        O  0.87412761  0.76446016  0.65399757    -0.79600
O140        O  0.81463605  0.75823985  0.63517468    -0.89900
C141        C  0.94207914  0.80166716  0.70155067     0.84100
O142        O  0.84476885  0.82758879  0.61619417    -0.68100
O143        O  0.84191007  0.89362829  0.73568063    -0.87300
C144        C  0.87381829  0.84763380  0.62432132     0.84900
C145        C  0.84846542  0.74496035  0.64167820     1.06500
H146        H  0.88385585  0.87984584  0.68558293     0.38300
O147        O  0.86737273  0.85870308  0.69242752    -1.10000
O148        O  0.78985196  0.83820155  0.71130338    -0.66700
Ni149      Ni  0.81316238  0.86874440  0.68338783     1.26300
O150        O  0.88594736  0.84533214  0.64644168    -0.66900
O151        O  0.81232563  0.91740089  0.70142332    -0.79200
C152        C  0.75915623  0.88663489  0.64541749     0.84300
O153        O  0.76109799  0.88155172  0.66908361    -0.66400
Ni154      Ni  0.88072230  0.85329347  0.72632467     1.27400
Ni155      Ni  0.87146429  0.81143805  0.67336156     1.26100
H156        H  0.80285677  0.79844463  0.67625805     0.38800
O157        O  0.94878671  0.66705610  0.52386717    -0.81100
O158        O  0.88576307  0.49715850  0.57242369    -0.65800
O159        O  0.92000534  0.60348558  0.55195051    -1.12400
C160        C  0.03396330  0.58035563  0.59563859     1.05700
O161        O  0.91607435  0.49994921  0.60923450    -0.79000
O162        O  0.92967039  0.57725988  0.61568703    -0.66600
Ni163      Ni  0.91353928  0.62113463  0.51868873     1.34900
C164        C  0.93575812  0.61291427  0.60839017     0.84500
O165        O  0.85175084  0.55739476  0.54523315    -0.79600
O166        O  0.87564322  0.58031488  0.50976281    -0.89900
C167        C  0.88918259  0.48598201  0.59530831     0.84100
O168        O  0.95505862  0.58481001  0.51185313    -0.68100
O169        O  0.00958263  0.56426236  0.61070176    -0.87300
C170        C  0.95452596  0.54687122  0.51578409     0.84900
C171        C  0.84680621  0.56709033  0.52258752     1.06500
H172        H  0.97016291  0.52304659  0.56462916     0.38300
O173        O  0.95585206  0.54381878  0.57322934    -1.10000
O174        O  0.96205215  0.62192043  0.59240240    -0.66700
Ni175      Ni  0.97445526  0.59502827  0.56203861     1.26300
O176        O  0.92753201  0.52934350  0.52931156    -0.66900
O177        O  0.02669748  0.58407084  0.57278898    -0.79200
C178        C  0.97998914  0.67345911  0.53668187     0.84300
O179        O  0.99416256  0.64670882  0.55102208    -0.66400
Ni180      Ni  0.96204214  0.53293055  0.60775171     1.27400
Ni181      Ni  0.90342216  0.54995195  0.56007277     1.26100
H182        H  0.90581021  0.62162846  0.56244093     0.38800
O183        O  0.60360469  0.31501863  0.72541058    -0.81100
O184        O  0.76853988  0.38526906  0.67476127    -0.65800
O185        O  0.66429142  0.34942604  0.69681714    -1.12400
C186        C  0.68254609  0.24072747  0.64759858     1.05700
O187        O  0.75906594  0.36212191  0.63627123    -0.79000
O188        O  0.68178699  0.34945537  0.63290779    -0.66600
Ni189      Ni  0.64865415  0.35151567  0.73068232     1.34900
C190        C  0.64739576  0.34097554  0.64085483     0.84500
O191        O  0.71176453  0.41657439  0.70549285    -0.79600
O192        O  0.68896639  0.38969414  0.74036645    -0.89900
C193        C  0.77623291  0.38559221  0.65125430     0.84100
O194        O  0.68537391  0.30964126  0.73514288    -0.68100
O195        O  0.69471588  0.26796134  0.63277961    -0.87300
C196        C  0.72258157  0.31066147  0.73051254     0.84900
C197        C  0.70347301  0.41927958  0.72842800     1.06500
H198        H  0.74290851  0.30106874  0.67860278     0.38300
O199        O  0.72121289  0.31652005  0.67180648    -1.10000
O200        O  0.64133825  0.31203221  0.65583339    -0.66700
Ni201      Ni  0.67252310  0.29601434  0.68413102     1.26300
O202        O  0.73918967  0.33834624  0.71689028    -0.66900
O203        O  0.68301429  0.24496973  0.67077895    -0.79200
C204        C  0.59784783  0.28491766  0.71132144     0.84300
O205        O  0.62399281  0.27372312  0.69608120    -0.66400
Ni206      Ni  0.72644020  0.31565697  0.63669091     1.27400
Ni207      Ni  0.71686906  0.36691217  0.68791922     1.26100
H208        H  0.64531392  0.36468588  0.68732727     0.38800
O209        O  0.93319480  0.68244124  0.21932348    -0.81100
O210        O  0.76540804  0.61403657  0.17435991    -0.65800
O211        O  0.87132718  0.64974919  0.19212741    -1.12400
C212        C  0.84634519  0.76154565  0.14510698     1.05700
O213        O  0.76912754  0.63982245  0.13597162    -0.79000
O214        O  0.84479365  0.65482067  0.12783177    -0.66600
Ni215      Ni  0.88854742  0.64665977  0.22566387     1.34900
C216        C  0.88011815  0.66235445  0.13418549     0.84500
O217        O  0.82459679  0.58192384  0.20229941    -0.79600
O218        O  0.84873143  0.60887745  0.23642453    -0.89900
C219        C  0.75519415  0.61443149  0.15132875     0.84100
O220        O  0.85242658  0.68889609  0.23137887    -0.68100
O221        O  0.83112268  0.73581266  0.13058561    -0.87300
C222        C  0.81486040  0.68729570  0.22792938     0.84900
C223        C  0.83271176  0.57967243  0.22527877     1.06500
H224        H  0.79139875  0.69899157  0.17819577     0.38300
O225        O  0.81189473  0.68380335  0.17002034    -1.10000
O226        O  0.88873982  0.68923719  0.14994047    -0.66700
Ni227      Ni  0.86223365  0.70371078  0.18017180     1.26300
O228        O  0.79785664  0.65931064  0.21510963    -0.66900
O229        O  0.85016764  0.75529720  0.16804770    -0.79200
C230        C  0.93916026  0.71285455  0.20539709     0.84300
O231        O  0.91318710  0.72517262  0.19011069    -0.66400
Ni232      Ni  0.80069969  0.68726321  0.13544752     1.27400
Ni233      Ni  0.81798916  0.63236806  0.18524808     1.26100
H234        H  0.88978673  0.63520661  0.18188642     0.38800
O235        O  0.60210609  0.32432070  0.03144315    -0.81100
O236        O  0.64996649  0.49956664  0.07496157    -0.65800
O237        O  0.62223776  0.39087374  0.05810919    -1.12400
C238        C  0.49577619  0.42580088  0.08362809     1.05700
O239        O  0.61390967  0.49907318  0.10980796    -0.79000
O240        O  0.59245764  0.42501709  0.11867063    -0.66600
Ni241      Ni  0.63550270  0.37115814  0.02620662     1.34900
C242        C  0.59002730  0.38898121  0.11184675     0.84500
O243        O  0.69032779  0.43848703  0.05385294    -0.79600
O244        O  0.67280222  0.41267977  0.01783749    -0.89900
C245        C  0.64386033  0.51119457  0.09736099     0.84100
O246        O  0.59364119  0.40507503  0.01489245    -0.68100
O247        O  0.51500857  0.44178322  0.10152004    -0.87300
C248        C  0.59331206  0.44336620  0.01740672     0.84900
C249        C  0.69786992  0.43067248  0.03129891     1.06500
H250        H  0.56964125  0.47250218  0.06105262     0.38300
O251        O  0.58156648  0.45287793  0.07195669    -1.10000
O252        O  0.56684216  0.37862048  0.09449518    -0.66700
Ni253      Ni  0.56608342  0.40053771  0.06148954     1.26300
O254        O  0.61889636  0.46202519  0.03108787    -0.66900
O255        O  0.51235965  0.41393903  0.06406803    -0.79200
C256        C  0.56806348  0.31878402  0.04113081     0.84300
O257        O  0.54938628  0.34718766  0.05159037    -0.66400
Ni258      Ni  0.56585448  0.46915878  0.10420190     1.27400
Ni259      Ni  0.63621873  0.44562348  0.06439222     1.26100
H260        H  0.63285407  0.37337634  0.07074849     0.38800
O261        O  0.92372310  0.99847202  0.11215020    -0.81100
O262        O  0.00220179  0.85809395  0.04969436    -0.65800
O263        O  0.96378400  0.95867468  0.07458765    -1.12400
C264        C  0.85514349  0.93858041  0.02441829     1.05700
O265        O  0.95693682  0.83984003  0.02204317    -0.79000
O266        O  0.96436423  0.92380507  0.01344524    -0.66600
Ni267      Ni  0.97125594  0.96785003  0.10897936     1.34900
C268        C  0.96347341  0.96103800  0.01932941     0.84500
O269        O  0.03469237  0.92049119  0.07128264    -0.79600
O270        O  0.02069327  0.93912829  0.10986850    -0.89900
C271        C  0.98811362  0.83247413  0.03470323     0.84100
O272        O  0.94099440  0.92185133  0.11681707    -0.68100
O273        O  0.88438599  0.92826027  0.01109240    -0.87300
C274        C  0.94653590  0.88681219  0.10872925     0.84900
C275        C  0.04464049  0.92629237  0.09348983     1.06500
H276        H  0.91475615  0.87963377  0.06261059     0.38300
O277        O  0.92790645  0.89969679  0.05253196    -1.10000
O278        O  0.93445041  0.97622220  0.03186569    -0.66700
Ni279      Ni  0.91126141  0.95256376  0.06205832     1.26300
O280        O  0.97227612  0.87939091  0.09218790    -0.66900
O281        O  0.85968986  0.94545891  0.04740135    -0.79200
C282        C  0.89693345  0.01352082  0.09843930     0.84300
O283        O  0.89388718  0.00431160  0.07532431    -0.66400
Ni284      Ni  0.92214669  0.88647553  0.01841471     1.27400
Ni285      Ni  0.98237236  0.90864965  0.06195419     1.26100
H286        H  0.97770406  0.98037790  0.06637809     0.38800
O287        O  0.77969168  0.15267922  0.13789239    -0.81100
O288        O  0.63073199  0.23017844  0.19041960    -0.65800
O289        O  0.73343671  0.19180487  0.17232254    -1.12400
C290        C  0.70583216  0.08162018  0.22279037     1.05700
O291        O  0.61043444  0.18914136  0.22051007    -0.79000
O292        O  0.69110294  0.19129136  0.23311103    -0.66600
Ni293      Ni  0.74684554  0.19891300  0.13809143     1.34900
C294        C  0.72864892  0.18990238  0.22967765     0.84500
O295        O  0.69456941  0.26330666  0.17103170    -0.79600
O296        O  0.71500940  0.24636785  0.13354458    -0.89900
C297        C  0.60444941  0.21862076  0.20575975     0.84100
O298        O  0.70432702  0.16538121  0.12881304    -0.68100
O299        O  0.69176129  0.11045559  0.23526479    -0.87300
C300        C  0.66851849  0.17066108  0.13494394     0.84900
C301        C  0.69788072  0.27048502  0.14818055     1.06500
H302        H  0.65411524  0.14226439  0.18180289     0.38300
O303        O  0.67237350  0.15623862  0.19245956    -1.10000
O304        O  0.74552246  0.16228887  0.21653548    -0.66700
Ni305      Ni  0.72547259  0.13871779  0.18545346     1.26300
O306        O  0.65812104  0.19704877  0.15056393    -0.66900
O307        O  0.71627293  0.08665894  0.20029808    -0.79200
C308        C  0.79057174  0.12388417  0.15176986     0.84300
O309        O  0.77777269  0.11984420  0.17423649    -0.66400
Ni310      Ni  0.65372033  0.15090078  0.22574496     1.27400
Ni311      Ni  0.68232191  0.21062534  0.18172563     1.26100
H312        H  0.75340260  0.20613731  0.18159861     0.38800
O313        O  0.10157681  0.82116478  0.22599225    -0.81100
O314        O  0.27163342  0.89291609  0.18477208    -0.65800
O315        O  0.16441696  0.85717289  0.19940566    -1.12400
C316        C  0.19257164  0.74397036  0.15431685     1.05700
O317        O  0.27975307  0.85858718  0.14950888    -0.79000
O318        O  0.20621017  0.84870209  0.13560867    -0.66600
Ni319      Ni  0.14518578  0.85875130  0.23276871     1.34900
C320        C  0.16939591  0.84519966  0.13939811     0.84500
O321        O  0.20919871  0.92513835  0.20949966    -0.79600
O322        O  0.18289432  0.89885819  0.24368788    -0.89900
C323        C  0.28826776  0.88747117  0.16356311     0.84100
O324        O  0.18252774  0.81738119  0.23969942    -0.68100
O325        O  0.21296290  0.76802768  0.14121662    -0.87300
C326        C  0.22015898  0.82018802  0.23661312     0.84900
C327        C  0.19879621  0.92819786  0.23213651     1.06500
H328        H  0.24372947  0.80559684  0.19109094     0.38300
O329        O  0.22606448  0.82124084  0.18087010    -1.10000
O330        O  0.15403513  0.82163586  0.15547363    -0.66700
Ni331      Ni  0.17309410  0.80383345  0.18740518     1.26300
O332        O  0.23638142  0.85017039  0.22519176    -0.66900
O333        O  0.18343162  0.75140854  0.17640519    -0.79200
C334        C  0.09425577  0.79480936  0.20950111     0.84300
O335        O  0.11975090  0.78606569  0.19315373    -0.66400
Ni336      Ni  0.24527682  0.81398554  0.14787013     1.27400
Ni337      Ni  0.21833355  0.87416491  0.19402691     1.26100
H338        H  0.14668326  0.87218688  0.18881431     0.38800
O339        O  0.46488959  0.15124765  0.02840143    -0.81100
O340        O  0.39611014  0.98679819  0.07949126    -0.65800
O341        O  0.43489669  0.09038920  0.05713749    -1.12400
C342        C  0.54775178  0.06486216  0.10067921     1.05700
O343        O  0.42667448  0.99044129  0.11629794    -0.79000
O344        O  0.44322513  0.06744317  0.12057427    -0.66600
Ni345      Ni  0.42941178  0.10584369  0.02344141     1.34900
C346        C  0.45189460  0.10225168  0.11274908     0.84500
O347        O  0.36485996  0.04695993  0.05072328    -0.79600
O348        O  0.39139691  0.06502829  0.01513541    -0.89900
C349        C  0.39944085  0.97674105  0.10255908     0.84100
O350        O  0.47063106  0.06848157  0.01815382    -0.68100
O351        O  0.52292486  0.05043572  0.11612147    -0.87300
C352        C  0.46926506  0.03094219  0.02337364     0.84900
C353        C  0.36110334  0.05555021  0.02779770     1.06500
H354        H  0.48157511  0.00798120  0.07148955     0.38300
O355        O  0.46817927  0.03002799  0.07942909    -1.10000
O356        O  0.47882257  0.10847295  0.09678071    -0.66700
Ni357      Ni  0.48901280  0.07961964  0.06699482     1.26300
O358        O  0.44042003  0.01486344  0.03608354    -0.66900
O359        O  0.54076376  0.06646713  0.07770735    -0.79200
C360        C  0.49625403  0.15726584  0.04110161     0.84300
O361        O  0.51057278  0.13007999  0.05510283    -0.66400
Ni362      Ni  0.47393330  0.02117119  0.11408125     1.27400
Ni363      Ni  0.41608211  0.03796789  0.06612333     1.26100
H364        H  0.42226151  0.11035272  0.06731904     0.38800
O365        O  0.27838582  0.34840552  0.13218317    -0.81100
O366        O  0.43575522  0.30715177  0.18094670    -0.65800
O367        O  0.32460375  0.31131875  0.16885890    -1.12400
C368        C  0.32917745  0.41938605  0.22176018     1.05700
O369        O  0.43057913  0.31288454  0.22169395    -0.79000
O370        O  0.35016150  0.31029151  0.23118187    -0.66600
Ni371      Ni  0.30457690  0.29828860  0.13674184     1.34900
C372        C  0.31326826  0.31038914  0.22625401     0.84500
O373        O  0.38744670  0.26220734  0.15586134    -0.79600
O374        O  0.32960495  0.24677820  0.13797148    -0.89900
C375        C  0.45013204  0.30200968  0.20245142     0.84100
O376        O  0.34701851  0.32095239  0.11785953    -0.68100
O377        O  0.34833730  0.39319229  0.23449777    -0.87300
C378        C  0.37476551  0.34366291  0.12526032     0.84900
C379        C  0.36552949  0.23924883  0.14333365     1.06500
H380        H  0.38961388  0.37740701  0.18552222     0.38300
O381        O  0.37378968  0.35597221  0.19259677    -1.10000
O382        O  0.29722646  0.33698939  0.21223197    -0.66700
Ni383      Ni  0.31975572  0.36350207  0.18318379     1.26300
O384        O  0.38980415  0.34190673  0.14674114    -0.66900
O385        O  0.31834257  0.41380188  0.19940778    -0.79200
C386        C  0.26113134  0.37330826  0.14612743     0.84300
O387        O  0.26717640  0.37353060  0.16961004    -0.66400
Ni388      Ni  0.38743540  0.35237438  0.22644141     1.27400
Ni389      Ni  0.38019801  0.30856620  0.17455158     1.26100
H390        H  0.31250184  0.29144868  0.17955066     0.38800
O391        O  0.13276389  0.50279421  0.10811371    -0.81100
O392        O  0.05400909  0.64860502  0.05027529    -0.65800
O393        O  0.09211611  0.54597451  0.07244248    -1.12400
C394        C  0.20074274  0.56659349  0.02120317     1.05700
O395        O  0.09879037  0.66817357  0.02236449    -0.79000
O396        O  0.09240813  0.58580829  0.01112536    -0.66600
Ni397      Ni  0.08567749  0.53350568  0.10664441     1.34900
C398        C  0.09284416  0.54812763  0.01597276     0.84500
O399        O  0.02113629  0.58608081  0.07219475    -0.79600
O400        O  0.03713311  0.56237421  0.10951162    -0.89900
C401        C  0.06769232  0.67477510  0.03526024     0.84100
O402        O  0.11563702  0.57875062  0.11610597    -0.68100
O403        O  0.17274618  0.58198009  0.00855985    -0.87300
C404        C  0.10936922  0.61459251  0.10938179     0.84900
C405        C  0.01309194  0.57925596  0.09472223     1.06500
H406        H  0.14204396  0.62438388  0.06170770     0.38300
O407        O  0.12822517  0.60570810  0.05117681    -1.10000
O408        O  0.12088630  0.53141125  0.02866326    -0.66700
Ni409      Ni  0.14451783  0.55197573  0.05921989     1.26300
O410        O  0.08603148  0.62402858  0.09179730    -0.66900
O411        O  0.19602047  0.55870791  0.04412860    -0.79200
C412        C  0.15855093  0.48801031  0.09379172     0.84300
O413        O  0.16122364  0.49879545  0.07087635    -0.66400
Ni414      Ni  0.13428974  0.62249410  0.01753498     1.27400
Ni415      Ni  0.07361482  0.59708532  0.06141527     1.26100
H416        H  0.07759578  0.52541526  0.06374259     0.38800
O417        O  0.43419200  0.81771131  0.78667054    -0.81100
O418        O  0.26917504  0.88088804  0.83673474    -0.65800
O419        O  0.37319026  0.84571721  0.81595761    -1.12400
C420        C  0.34449657  0.72736113  0.85524678     1.05700
O421        O  0.27288905  0.85020071  0.87356344    -0.79000
O422        O  0.34831737  0.83043655  0.87930014    -0.66600
Ni423      Ni  0.38999190  0.85457923  0.78277399     1.34900
C424        C  0.38315402  0.82328404  0.87175907     0.84500
O425        O  0.32858213  0.91587777  0.81092040    -0.79600
O426        O  0.35068868  0.89427719  0.77487729    -0.89900
C427        C  0.25960084  0.87821979  0.85980535     0.84100
O428        O  0.35283562  0.81402314  0.77450261    -0.68100
O429        O  0.33017653  0.75097704  0.87141792    -0.87300
C430        C  0.31530370  0.81556437  0.77831223     0.84900
C431        C  0.33526192  0.92144927  0.78803096     1.06500
H432        H  0.29178679  0.79643736  0.82740982     0.38300
O433        O  0.31301852  0.80963321  0.83619739    -1.10000
O434        O  0.39015755  0.79785572  0.85491533    -0.66700
Ni435      Ni  0.36254714  0.79018861  0.82410445     1.26300
O436        O  0.29908745  0.84136258  0.79310862    -0.66900
O437        O  0.34868888  0.73707930  0.83275402    -0.79200
C438        C  0.43956402  0.78457148  0.79808098     0.84300
O439        O  0.41278394  0.76949356  0.81204203    -0.66400
Ni440      Ni  0.30222776  0.80132288  0.87047673     1.27400
Ni441      Ni  0.32065632  0.86300979  0.82439367     1.26100
H442        H  0.39206097  0.85810351  0.82695633     0.38800
O443        O  0.10257402  0.17566400  0.98183196    -0.81100
O444        O  0.16504920  0.00628598  0.93566805    -0.65800
O445        O  0.12972345  0.11280119  0.95353034    -1.12400
C446        C  0.00791666  0.07054525  0.92219556     1.05700
O447        O  0.13369099  0.00890635  0.89922896    -0.79000
O448        O  0.10527172  0.08102691  0.89092560    -0.66600
Ni449      Ni  0.14002641  0.13171894  0.98623704     1.34900
C450        C  0.09738703  0.11658688  0.89708342     0.84500
O451        O  0.20074681  0.06965597  0.95813721    -0.79600
O452        O  0.18103154  0.09332047  0.99428999    -0.89900
C453        C  0.16123526  0.99531968  0.91295199     0.84100
O454        O  0.10042327  0.09383272  0.99610538    -0.68100
O455        O  0.03014004  0.05541878  0.90553763    -0.87300
C456        C  0.10196890  0.05597930  0.99209230     0.84900
C457        C  0.20749306  0.07732905  0.98080805     1.06500
H458        H  0.08270890  0.02832049  0.94718523     0.38300
O459        O  0.09422650  0.04931090  0.93706162    -1.10000
O460        O  0.07703569  0.12525620  0.91609109    -0.66700
Ni461      Ni  0.07428735  0.09971501  0.94805828     1.26300
O462        O  0.12989352  0.04012796  0.97900727    -0.66900
O463        O  0.02123683  0.08350587  0.94256545    -0.79200
C464        C  0.06896853  0.17951275  0.97122543     0.84300
O465        O  0.05351038  0.15081830  0.95906069    -0.66400
Ni466      Ni  0.08300336  0.03351025  0.90414342     1.27400
Ni467      Ni  0.14771182  0.05935613  0.94644322     1.26100
H468        H  0.13990104  0.13164033  0.94139325     0.38800
O469        O  0.59991127  0.67122715  0.78090557    -0.81100
O470        O  0.77077079  0.61388040  0.82679581    -0.65800
O471        O  0.66456220  0.64628562  0.80806466    -1.12400
C472        C  0.69519812  0.76859938  0.84093677     1.05700
O473        O  0.77026017  0.64918445  0.86194534    -0.79000
O474        O  0.69531915  0.66772138  0.86982711    -0.66600
Ni475      Ni  0.64511108  0.63572248  0.77576574     1.34900
C476        C  0.65977504  0.67291960  0.86301351     0.84500
O477        O  0.70960333  0.57630492  0.80321134    -0.79600
O478        O  0.68487025  0.59683081  0.76739267    -0.89900
C479        C  0.78267703  0.61978467  0.84924387     0.84100
O480        O  0.68073770  0.67715607  0.76559674    -0.68100
O481        O  0.71106909  0.74706053  0.85779202    -0.87300
C482        C  0.71857831  0.67662396  0.76851116     0.84900
C483        C  0.70066286  0.56971227  0.78069076     1.06500
H484        H  0.74631586  0.69732548  0.81465741     0.38300
O485        O  0.72602470  0.68467962  0.82470538    -1.10000
O486        O  0.65085875  0.69736687  0.84577757    -0.66700
Ni487      Ni  0.67531356  0.70244651  0.81364132     1.26300
O488        O  0.73621078  0.65034595  0.78255483    -0.66900
O489        O  0.68902791  0.75620112  0.81927387    -0.79200
C490        C  0.59556677  0.70505130  0.79144243     0.84300
O491        O  0.62403907  0.72173244  0.80290087    -0.66400
Ni492      Ni  0.73972102  0.69697064  0.85801231     1.27400
Ni493      Ni  0.71800977  0.63019282  0.81517575     1.26100
H494        H  0.64662341  0.63470130  0.82009942     0.38800
O495        O  0.94909698  0.33699417  0.98004958    -0.81100
O496        O  0.88434180  0.50376550  0.93025943    -0.65800
O497        O  0.92063227  0.39881879  0.95163316    -1.12400
C498        C  0.03858760  0.43564405  0.91396113     1.05700
O499        O  0.91110987  0.49515596  0.89267394    -0.79000
O500        O  0.93763708  0.42151383  0.88772352    -0.66600
Ni501      Ni  0.91379466  0.38220045  0.98507112     1.34900
C502        C  0.94714779  0.38704165  0.89547169     0.84500
O503        O  0.85106223  0.44360671  0.95830152    -0.79600
O504        O  0.87624607  0.42272469  0.99382754    -0.89900
C505        C  0.88550273  0.51123886  0.90675163     0.84100
O506        O  0.95508148  0.41955572  0.99131067    -0.68100
O507        O  0.01462838  0.44772359  0.89715200    -0.87300
C508        C  0.95395934  0.45727378  0.98640359     0.84900
C509        C  0.84750035  0.43661909  0.98143214     1.06500
H510        H  0.96718557  0.48217202  0.93887609     0.38300
O511        O  0.95442836  0.45994811  0.93069496    -1.10000
O512        O  0.97037061  0.38161824  0.91365623    -0.66700
Ni513      Ni  0.97545320  0.41128957  0.94383033     1.26300
O514        O  0.92555197  0.47352970  0.97368069    -0.66900
O515        O  0.02756448  0.42704241  0.93574584    -0.79200
C516        C  0.98273064  0.33339745  0.96951217     0.84300
O517        O  0.99792525  0.36207091  0.95700715    -0.66400
Ni518      Ni  0.96195289  0.47043879  0.89660266     1.27400
Ni519      Ni  0.90237240  0.45175837  0.94315776     1.26100
H520        H  0.90926917  0.37916240  0.94062477     0.38800
O521        O  0.79012477  0.13492182  0.86722819    -0.81100
O522        O  0.94150439  0.18106688  0.81567828    -0.65800
O523        O  0.83163033  0.17634089  0.83043819    -1.12400
C524        C  0.83226493  0.07148184  0.77419281     1.05700
O525        O  0.93154536  0.18261915  0.77531428    -0.79000
O526        O  0.85269305  0.17881878  0.76515642    -0.66600
Ni527      Ni  0.81398286  0.18645567  0.86314846     1.34900
C528        C  0.81639246  0.18038626  0.77127091     0.84500
O529        O  0.89599235  0.22409651  0.84419615    -0.79600
O530        O  0.83755743  0.23872801  0.86165313    -0.89900
C531        C  0.95192782  0.19306069  0.79431463     0.84100
O532        O  0.85855229  0.16516503  0.88048531    -0.68100
O533        O  0.85511023  0.09588679  0.76228534    -0.87300
C534        C  0.88554354  0.14221833  0.87247295     0.84900
C535        C  0.87352961  0.24698842  0.85646095     1.06500
H536        H  0.89328475  0.11129085  0.81047084     0.38300
O537        O  0.87801305  0.13365279  0.80419688    -1.10000
O538        O  0.80047605  0.15588918  0.78687446    -0.66700
Ni539      Ni  0.82406134  0.12608109  0.81436913     1.26300
O540        O  0.89795354  0.14307118  0.85030400    -0.66900
O541        O  0.81976643  0.07755817  0.79620633    -0.79200
C542        C  0.76832229  0.11402224  0.85318230     0.84300
O543        O  0.77192015  0.11602550  0.82943735    -0.66400
Ni544      Ni  0.89176114  0.13926699  0.77041751     1.27400
Ni545      Ni  0.88675554  0.17912107  0.82383905     1.26100
H546        H  0.81951799  0.19730006  0.82063903     0.38800
O547        O  0.62650888  0.00103576  0.89514078    -0.81100
O548        O  0.55775772  0.84182284  0.94477100    -0.65800
O549        O  0.59252247  0.94874824  0.92896791    -1.12400
C550        C  0.70550529  0.92185920  0.97357066     1.05700
O551        O  0.60479440  0.81857359  0.96988057    -0.79000
O552        O  0.59904385  0.89842725  0.98658588    -0.66600
Ni553      Ni  0.58075578  0.96782144  0.89649898     1.34900
C554        C  0.59952543  0.93673298  0.98449332     0.84500
O555        O  0.52236780  0.90803140  0.93022379    -0.79600
O556        O  0.53315068  0.93641293  0.89349266    -0.89900
C557        C  0.57283286  0.81366037  0.95761428     0.84100
O558        O  0.61193213  0.92692013  0.88291101    -0.68100
O559        O  0.67915862  0.90309187  0.98594938    -0.87300
C560        C  0.60746096  0.88984245  0.88689824     0.84900
C561        C  0.51136994  0.91690674  0.90859716     1.06500
H562        H  0.64345331  0.86887335  0.93168364     0.38300
O563        O  0.63108967  0.88571529  0.94394266    -1.10000
O564        O  0.62627935  0.95576454  0.97169476    -0.66700
Ni565      Ni  0.64647267  0.94071059  0.93885951     1.26300
O566        O  0.58502273  0.87548526  0.90380630    -0.66900
O567        O  0.69935623  0.93207654  0.95116087    -0.79200
C568        C  0.65641466  0.01072387  0.90802814     0.84300
O569        O  0.66269254  0.99530227  0.92964067    -0.66400
Ni570      Ni  0.64034884  0.86368161  0.97608106     1.27400
Ni571      Ni  0.57578824  0.89547917  0.93690379     1.26100
H572        H  0.57922763  0.96714879  0.93992133     0.38800
O573        O  0.25195319  0.36502647  0.85764648    -0.81100
O574        O  0.09994906  0.31781948  0.80952621    -0.65800
O575        O  0.21016508  0.32243906  0.82220089    -1.12400
C576        C  0.20536876  0.42732226  0.76442870     1.05700
O577        O  0.10745590  0.31498354  0.76898443    -0.79000
O578        O  0.18697254  0.31756235  0.75778009    -0.66600
Ni579      Ni  0.22839267  0.31321297  0.85500542     1.34900
C580        C  0.22339182  0.31642961  0.76388525     0.84500
O581        O  0.14644773  0.27443166  0.83731149    -0.79600
O582        O  0.20493770  0.26074796  0.85494435    -0.89900
C583        C  0.08780269  0.30582639  0.78869921     0.84100
O584        O  0.18432297  0.33476614  0.87258484    -0.68100
O585        O  0.18418054  0.40126942  0.75282925    -0.87300
C586        C  0.15712387  0.35727172  0.86427493     0.84900
C587        C  0.16898519  0.25202016  0.85001989     1.06500
H588        H  0.14734148  0.38690622  0.80202443     0.38300
O589        O  0.16264052  0.36454748  0.79594948    -1.10000
O590        O  0.23969247  0.34247292  0.77804349    -0.66700
Ni591      Ni  0.21684336  0.37271069  0.80525728     1.26300
O592        O  0.14439566  0.35554922  0.84228713    -0.66900
O593        O  0.21938598  0.42143438  0.78624159    -0.79200
C594        C  0.27452184  0.38445674  0.84308062     0.84300
O595        O  0.26975833  0.38300633  0.81939593    -0.66400
Ni596      Ni  0.14789310  0.35774696  0.76242715     1.27400
Ni597      Ni  0.15489296  0.31933084  0.81635368     1.26100
H598        H  0.22212829  0.30126198  0.81269340     0.38800
O599        O  0.42265564  0.48674255  0.88498653    -0.81100
O600        O  0.50304091  0.63089152  0.94309144    -0.65800
O601        O  0.46200421  0.52971358  0.92108213    -1.12400
C602        C  0.35226724  0.55580801  0.97024606     1.05700
O603        O  0.45764819  0.65239865  0.96977323    -0.79000
O604        O  0.46103444  0.57026226  0.98175200    -0.66600
Ni605      Ni  0.46949637  0.51882074  0.88675091     1.34900
C606        C  0.45990333  0.53257417  0.97731842     0.84500
O607        O  0.53403493  0.56635209  0.92274612    -0.79600
O608        O  0.51792737  0.54956961  0.88433583    -0.89900
C609        C  0.48935218  0.65794699  0.95719602     0.84100
O610        O  0.43803604  0.56389577  0.87836950    -0.68100
O611        O  0.38113502  0.56809416  0.98328138    -0.87300
C612        C  0.44484282  0.59928365  0.88566756     0.84900
C613        C  0.54191423  0.56473261  0.89994269     1.06500
H614        H  0.41491378  0.61032066  0.93060623     0.38300
O615        O  0.42747935  0.59095801  0.94136437    -1.10000
O616        O  0.43181010  0.51620169  0.96438905    -0.66700
Ni617      Ni  0.40937357  0.53801219  0.93337160     1.26300
O618        O  0.47204757  0.60689588  0.90122513    -0.66900
O619        O  0.35740852  0.54707151  0.94754476    -0.79200
C620        C  0.39434153  0.47462168  0.89871690     0.84300
O621        O  0.39057938  0.48611257  0.92137513    -0.66400
Ni622      Ni  0.42067184  0.60783355  0.97466529     1.27400
Ni623      Ni  0.48190462  0.58001081  0.93226620     1.26100
H624        H  0.47518999  0.50830828  0.92993895     0.38800
O625        O  0.11506955  0.50659304  0.38361339    -0.81100
O626        O  0.04617303  0.35962428  0.44571437    -0.65800
O627        O  0.07938025  0.46313653  0.42185779    -1.12400
C628        C  0.19473110  0.44261534  0.46438847     1.05700
O629        O  0.09791869  0.33762596  0.46740087    -0.79000
O630        O  0.08942112  0.41838347  0.48113980    -0.66600
Ni631      Ni  0.06651024  0.47695298  0.38864242     1.34900
C632        C  0.08800491  0.45623978  0.47712219     0.84500
O633        O  0.01000463  0.42430159  0.42873195    -0.79600
O634        O  0.01632116  0.44844738  0.39020525    -0.89900
C635        C  0.06399483  0.33192240  0.45757931     0.84100
O636        O  0.09345940  0.43172370  0.37638196    -0.68100
O637        O  0.16908199  0.42667286  0.47861855    -0.87300
C638        C  0.08880142  0.39574328  0.38336503     0.84900
C639        C  0.99631257  0.43121441  0.40739214     1.06500
H640        H  0.13062814  0.38437075  0.42661280     0.38300
O641        O  0.11934926  0.40233105  0.43865002    -1.10000
O642        O  0.11413147  0.47463311  0.46348136    -0.66700
Ni643      Ni  0.13329636  0.45662838  0.43094768     1.26300
O644        O  0.06721149  0.38633073  0.40184937    -0.66900
O645        O  0.18696916  0.44987005  0.44183992    -0.79200
C646        C  0.14353337  0.51974946  0.39685161     0.84300
O647        O  0.14713413  0.51009023  0.41978905    -0.66400
Ni648      Ni  0.13172762  0.38447973  0.47132065     1.27400
Ni649      Ni  0.06346990  0.41169213  0.43373787     1.26100
H650        H  0.06675706  0.48347940  0.43175555     0.38800
O651        O  0.28921227  0.63104020  0.35771028    -0.81100
O652        O  0.43213754  0.69789403  0.30833961    -0.65800
O653        O  0.32333390  0.67835838  0.32132907    -1.12400
C654        C  0.33380428  0.57308739  0.26774437     1.05700
O655        O  0.43230707  0.68326011  0.26819700    -0.79000
O656        O  0.35101437  0.68366206  0.25975597    -0.66600
Ni657      Ni  0.30314125  0.68614926  0.35356229     1.34900
C658        C  0.31419356  0.68193776  0.26513031     0.84500
O659        O  0.37667891  0.73816593  0.33225777    -0.79600
O660        O  0.31658726  0.74145152  0.35036492    -0.89900
C661        C  0.44881975  0.69900616  0.28726716     0.84100
O662        O  0.34982298  0.67510576  0.37237471    -0.68100
O663        O  0.35151677  0.60072864  0.25525340    -0.87300
C664        C  0.37956814  0.65551550  0.36493541     0.84900
C665        C  0.34868032  0.75752468  0.34254483     1.06500
H666        H  0.39419209  0.61985935  0.30529901     0.38300
O667        O  0.37660264  0.63921016  0.29776837    -1.10000
O668        O  0.29927473  0.65283381  0.27780482    -0.66700
Ni669      Ni  0.32269784  0.62689576  0.30681233     1.26300
O670        O  0.39307340  0.65845556  0.34314042    -0.66900
O671        O  0.32445280  0.57705254  0.29042774    -0.79200
C672        C  0.26532363  0.61233098  0.34381115     0.84300
O673        O  0.27022168  0.61349642  0.32018970    -0.66400
Ni674      Ni  0.38964985  0.64278083  0.26362030     1.27400
Ni675      Ni  0.37742572  0.68871765  0.31499386     1.26100
H676        H  0.30833808  0.69704597  0.31138784     0.38800
O677        O  0.92192891  0.00272316  0.38689382    -0.81100
O678        O  0.00078961  0.14683165  0.44571357    -0.65800
O679        O  0.96163416  0.04519942  0.42319272    -1.12400
C680        C  0.85309457  0.06775244  0.47349953     1.05700
O681        O  0.95517216  0.16682961  0.47266870    -0.79000
O682        O  0.96189495  0.08420787  0.48394768    -0.66600
Ni683      Ni  0.96897945  0.03451382  0.38891249     1.34900
C684        C  0.96092044  0.04650130  0.47943462     0.84500
O685        O  0.03288827  0.08325383  0.42513196    -0.79600
O686        O  0.01742887  0.06502234  0.38682875    -0.89900
C687        C  0.98638247  0.17344181  0.45984375     0.84100
O688        O  0.93815092  0.07973201  0.38020596    -0.68100
O689        O  0.88211299  0.07967664  0.48647803    -0.87300
C690        C  0.94450955  0.11530127  0.38731612     0.84900
C691        C  0.04106331  0.08068173  0.40244209     1.06500
H692        H  0.91302220  0.12431251  0.43351342     0.38300
O693        O  0.92622362  0.10516332  0.44411565    -1.10000
O694        O  0.93274381  0.03012053  0.46657581    -0.66700
Ni695      Ni  0.90922492  0.05199977  0.43590684     1.26300
O696        O  0.96998693  0.12349059  0.40390809    -0.66900
O697        O  0.85768981  0.05983230  0.45063685    -0.79200
C698        C  0.89451194  0.98915802  0.40082373     0.84300
O699        O  0.89131782  0.99980711  0.42368688    -0.66400
Ni700      Ni  0.92008288  0.12085955  0.47773124     1.27400
Ni701      Ni  0.98062526  0.09570347  0.43465103     1.26100
H702        H  0.97547586  0.02401982  0.43185497     0.38800
O703        O  0.76449398  0.86091985  0.36310614    -0.81100
O704        O  0.62462140  0.77896462  0.30421314    -0.65800
O705        O  0.72328177  0.81955810  0.32732474    -1.12400
C706        C  0.70247387  0.92775538  0.27405340     1.05700
O707        O  0.60608199  0.81940031  0.27359869    -0.79000
O708        O  0.68774680  0.81791767  0.26416994    -0.66600
Ni709      Ni  0.73039682  0.81527952  0.36235864     1.34900
C710        C  0.72482351  0.81911151  0.26915587     0.84500
O711        O  0.68456502  0.74821111  0.32790961    -0.79600
O712        O  0.69721800  0.76819878  0.36610009    -0.89900
C713        C  0.59963566  0.78944626  0.28797153     0.84100
O714        O  0.68678691  0.84980471  0.36771859    -0.68100
O715        O  0.68866702  0.89893066  0.26133537    -0.87300
C716        C  0.65201247  0.84270847  0.35999995     0.84900
C717        C  0.68308287  0.74274179  0.35099795     1.06500
H718        H  0.64608742  0.86845967  0.31333284     0.38300
O719        O  0.66530944  0.85402790  0.30363818    -1.10000
O720        O  0.74066859  0.84653876  0.28295238    -0.66700
Ni721      Ni  0.71779412  0.87156141  0.31270322     1.26300
O722        O  0.64462869  0.81496037  0.34461539    -0.66900
O723        O  0.71127188  0.92299503  0.29680104    -0.79200
C724        C  0.77956692  0.88686631  0.34851652     0.84300
O725        O  0.76945228  0.88958122  0.32548733    -0.66400
Ni726      Ni  0.64978578  0.85821482  0.26974231     1.27400
Ni727      Ni  0.67395255  0.80005659  0.31549630     1.26100
H728        H  0.74459686  0.80479720  0.31966873     0.38800
O729        O  0.45441130  0.84817772  0.47826185    -0.81100
O730        O  0.38234245  0.01084608  0.42705412    -0.65800
O731        O  0.40775494  0.90383310  0.45051980    -1.12400
C732        C  0.51492638  0.92224297  0.39408978     1.05700
O733        O  0.39182649  0.98866925  0.38891394    -0.79000
O734        O  0.42893868  0.92480769  0.37281078    -0.66600
Ni735      Ni  0.41658034  0.89187835  0.48452700     1.34900
C736        C  0.41260996  0.89420105  0.38232068     0.84500
O737        O  0.35017760  0.95916498  0.46156661    -0.79600
O738        O  0.37826050  0.93175967  0.49515600    -0.89900
C739        C  0.37565651  0.01311490  0.40360603     0.84100
O740        O  0.45870855  0.92937257  0.48472624    -0.68100
O741        O  0.49997554  0.95543883  0.38702872    -0.87300
C742        C  0.45838749  0.96625318  0.47856572     0.84900
C743        C  0.34895266  0.94879030  0.48433854     1.06500
H744        H  0.46482478  0.96954644  0.43027166     0.38300
O745        O  0.44389688  0.95450898  0.42236797    -1.10000
O746        O  0.41801798  0.88295047  0.40446340    -0.66700
Ni747      Ni  0.45309034  0.89990464  0.42967301     1.26300
O748        O  0.42899570  0.98237137  0.46704134    -0.66900
O749        O  0.49803976  0.89716156  0.40852601    -0.79200
C750        C  0.46613888  0.82980529  0.45883937     0.84300
O751        O  0.46138636  0.84471232  0.43738675    -0.66400
Ni752      Ni  0.44599296  0.97227500  0.38896237     1.27400
Ni753      Ni  0.39626227  0.95825653  0.44110069     1.26100
H754        H  0.38654615  0.88662361  0.44480402     0.38800
O755        O  0.09803087  0.18628014  0.28208178    -0.81100
O756        O  0.26658893  0.12309828  0.32672293    -0.65800
O757        O  0.16149233  0.15917904  0.30926037    -1.12400
C758        C  0.19360525  0.27925218  0.34304585     1.05700
O759        O  0.27136832  0.16010820  0.36113194    -0.79000
O760        O  0.19620364  0.17859286  0.37030598    -0.66600
Ni761      Ni  0.14073518  0.14815266  0.27731474     1.34900
C762        C  0.16042733  0.18499738  0.36423049     0.84500
O763        O  0.20356726  0.08720465  0.30488145    -0.79600
O764        O  0.17811132  0.10698289  0.26910243    -0.89900
C765        C  0.28111159  0.12975627  0.34839081     0.84100
O766        O  0.17774252  0.18721979  0.26630810    -0.68100
O767        O  0.21113543  0.25732607  0.35901750    -0.87300
C768        C  0.21541583  0.18540202  0.26924010     0.84900
C769        C  0.19451347  0.08032432  0.28241245     1.06500
H770        H  0.24511239  0.20730387  0.31441892     0.38300
O771        O  0.22484796  0.19566767  0.32494551    -1.10000
O772        O  0.15115382  0.20967615  0.34717559    -0.66700
Ni773      Ni  0.17430631  0.21515068  0.31471476     1.26300
O774        O  0.23230465  0.15873417  0.28319761    -0.66900
O775        O  0.18974008  0.26878533  0.32078029    -0.79200
C776        C  0.09475152  0.22016310  0.29264911     0.84300
O777        O  0.12327823  0.23587898  0.30459988    -0.66400
Ni778      Ni  0.24039321  0.20781202  0.35803784     1.27400
Ni779      Ni  0.21428541  0.14110523  0.31608566     1.26100
H780        H  0.14352030  0.14823050  0.32148506     0.38800
O781        O  0.58810635  0.67590682  0.47394190    -0.81100
O782        O  0.65260853  0.50673322  0.42836095    -0.65800
O783        O  0.61654665  0.61281128  0.44586753    -1.12400
C784        C  0.49537586  0.57130510  0.41447515     1.05700
O785        O  0.62111076  0.50872243  0.39182552    -0.79000
O786        O  0.59342277  0.58094843  0.38355964    -0.66600
Ni787      Ni  0.62664564  0.63291751  0.47835877     1.34900
C788        C  0.58609757  0.61647505  0.39001802     0.84500
O789        O  0.68776672  0.57023359  0.45087990    -0.79600
O790        O  0.66789979  0.59513738  0.48666352    -0.89900
C791        C  0.64921067  0.49621423  0.40553705     0.84100
O792        O  0.58792937  0.59509030  0.48868939    -0.68100
O793        O  0.51766859  0.55634773  0.39773771    -0.87300
C794        C  0.58941394  0.55717782  0.48522556     0.84900
C795        C  0.69454375  0.57913646  0.47335916     1.06500
H796        H  0.57019963  0.52763425  0.43975490     0.38300
O797        O  0.58157083  0.54871465  0.42959968    -1.10000
O798        O  0.56380328  0.62424250  0.40832403    -0.66700
Ni799      Ni  0.56144111  0.59886294  0.44041341     1.26300
O800        O  0.61655335  0.54051177  0.47179483    -0.66900
O801        O  0.50854876  0.58230731  0.43524808    -0.79200
C802        C  0.55473414  0.67846686  0.46291013     0.84300
O803        O  0.54043076  0.64932935  0.45080978    -0.66400
Ni804      Ni  0.57037326  0.53357051  0.39649231     1.27400
Ni805      Ni  0.63485209  0.55945981  0.43912936     1.26100
H806        H  0.62662237  0.63145718  0.43359945     0.38800
O807        O  0.93341585  0.33177099  0.28220600    -0.81100
O808        O  0.76306318  0.39021183  0.32800985    -0.65800
O809        O  0.86974118  0.35879909  0.31004259    -1.12400
C810        C  0.84489804  0.23979152  0.35007696     1.05700
O811        O  0.76181361  0.35588423  0.36374343    -0.79000
O812        O  0.83647226  0.34232541  0.37342105    -0.66600
Ni813      Ni  0.88783606  0.36654678  0.27689336     1.34900
C814        C  0.87259463  0.33843547  0.36780114     0.84500
O815        O  0.82287450  0.42661736  0.30281965    -0.79600
O816        O  0.84710666  0.40402629  0.26749424    -0.89900
C817        C  0.75042611  0.38513243  0.35038774     0.84100
O818        O  0.85313317  0.32369757  0.26905148    -0.68100
O819        O  0.82669891  0.26215913  0.36529535    -0.87300
C820        C  0.81548166  0.32364302  0.27234205     0.84900
C821        C  0.83086671  0.43157272  0.27997132     1.06500
H822        H  0.79038165  0.30551839  0.31902910     0.38300
O823        O  0.80965293  0.31994778  0.32879283    -1.10000
O824        O  0.88504155  0.31519681  0.35087661    -0.66700
Ni825      Ni  0.86141567  0.30339506  0.31907861     1.26300
O826        O  0.79755497  0.35066369  0.28541574    -0.66900
O827        O  0.85053389  0.24965787  0.32780218    -0.79200
C828        C  0.93975501  0.30024451  0.29509299     0.84300
O829        O  0.91349334  0.28575074  0.30952242    -0.66400
Ni830      Ni  0.79475943  0.30973198  0.36229511     1.27400
Ni831      Ni  0.81596884  0.37385068  0.31694017     1.26100
H832        H  0.88765415  0.37220230  0.32114020     0.38800
C833        C  0.67826735  0.46938332  0.39283628    -0.05700
C834        C  0.69120140  0.47934354  0.36859008    -0.33100
C835        C  0.71374616  0.45251194  0.35415518     0.36100
C836        C  0.72322283  0.41414853  0.36349791    -0.06100
C837        C  0.71009942  0.40453246  0.38789211    -0.33000
C838        C  0.68844036  0.43167776  0.40244140     0.36000
H839        H  0.68350797  0.50826441  0.36068401     0.16400
O840        O  0.72711720  0.46466963  0.33130959    -0.60500
H841        H  0.71681005  0.37558966  0.39607609     0.16400
O842        O  0.67542380  0.42003329  0.42547247    -0.60600
H843        H  0.69722148  0.42739241  0.43693043     0.43400
H844        H  0.70626076  0.45605262  0.31951477     0.43300
C845        C  0.97939798  0.27954518  0.29349347    -0.05700
C846        C  0.01424992  0.30140409  0.28784508    -0.33100
C847        C  0.05188912  0.28273496  0.28757894     0.36100
C848        C  0.05535893  0.24107767  0.29202835    -0.06100
C849        C  0.02049663  0.21908477  0.29695941    -0.33000
C850        C  0.98314844  0.23788736  0.29819129     0.36000
H851        H  0.01249126  0.33335503  0.28420283     0.16400
O852        O  0.08496392  0.30531350  0.28221736    -0.60500
H853        H  0.02231688  0.18712696  0.30060259     0.16400
O854        O  0.95030172  0.21486709  0.30342010    -0.60600
H855        H  0.94982008  0.21221109  0.32172862     0.43400
H856        H  0.09323165  0.31704205  0.29824532     0.43300
C857        C  0.48706429  0.79015665  0.46098232    -0.05700
C858        C  0.51265404  0.78179176  0.48100180    -0.33100
C859        C  0.53491703  0.74589311  0.48206351     0.36100
C860        C  0.53154755  0.71702017  0.46309122    -0.06100
C861        C  0.50538881  0.72528203  0.44337845    -0.33000
C862        C  0.48363231  0.76114630  0.44214480     0.36000
H863        H  0.51621443  0.80363071  0.49560521     0.16400
O864        O  0.55997977  0.73957782  0.50168558    -0.60500
H865        H  0.50232983  0.70413674  0.42834838     0.16400
O866        O  0.45823209  0.76705996  0.42261006    -0.60600
H867        H  0.47535406  0.77571086  0.40858392     0.43400
H868        H  0.54387659  0.72473937  0.51413869     0.43300
C869        C  0.34847669  0.04287336  0.39163885    -0.05700
C870        C  0.35225035  0.08397444  0.39629526    -0.33100
C871        C  0.33259878  0.11251796  0.38134684     0.36100
C872        C  0.30801787  0.10040702  0.36126365    -0.06100
C873        C  0.30415764  0.05920404  0.35678731    -0.33000
C874        C  0.32406973  0.03075537  0.37159560     0.36000
H875        H  0.37172113  0.09414416  0.41094762     0.16400
O876        O  0.33770782  0.15240035  0.38663797    -0.60500
H877        H  0.28466094  0.04880390  0.34220755     0.16400
O878        O  0.31872766  0.99073901  0.36667917    -0.60600
H879        H  0.33517318  0.98537580  0.35182178     0.43400
H880        H  0.36098833  0.16104903  0.37665705     0.43300
C881        C  0.65806436  0.71028172  0.36050944    -0.05700
C882        C  0.65557850  0.67392057  0.34776185    -0.33100
C883        C  0.62995649  0.64366709  0.35601388     0.36100
C884        C  0.60642333  0.64982409  0.37731742    -0.06100
C885        C  0.60705825  0.68736296  0.38889298    -0.33000
C886        C  0.63252213  0.71744330  0.38064425     0.36000
H887        H  0.67387548  0.66881141  0.33157171     0.16400
O888        O  0.62912265  0.60794799  0.34355387    -0.60500
H889        H  0.58889104  0.69315360  0.40505031     0.16400
O890        O  0.63191787  0.75391274  0.39230052    -0.60600
H891        H  0.60980817  0.76892179  0.38445966     0.43400
H892        H  0.60652254  0.61028727  0.33187603     0.43300
C893        C  0.61883959  0.86710277  0.36848749    -0.05700
C894        C  0.58577706  0.87105200  0.35284435    -0.33100
C895        C  0.55275228  0.89245407  0.36039654     0.36100
C896        C  0.55247085  0.90991466  0.38387487    -0.06100
C897        C  0.58564046  0.90718841  0.39937108    -0.33000
C898        C  0.61914992  0.88619584  0.39167349     0.36000
H899        H  0.58500006  0.85672482  0.33489926     0.16400
O900        O  0.51996229  0.89423296  0.34534337    -0.60500
H901        H  0.58481753  0.91983425  0.41780511     0.16400
O902        O  0.65107062  0.88301563  0.40732087    -0.60600
H903        H  0.64590141  0.85854769  0.41739791     0.43400
H904        H  0.50484620  0.86922463  0.34886275     0.43300
C905        C  0.86702203  0.20584449  0.35978262    -0.05700
C906        C  0.88866803  0.21225572  0.38145671    -0.33100
C907        C  0.91585928  0.18412522  0.38980003     0.36100
C908        C  0.92049630  0.14785136  0.37683984    -0.06100
C909        C  0.89868583  0.14139319  0.35500644    -0.33000
C910        C  0.87267804  0.17065469  0.34611893     0.36000
H911        H  0.88575298  0.24011325  0.39150962     0.16400
O912        O  0.93815201  0.19279659  0.41037336    -0.60500
H913        H  0.90191826  0.11376902  0.34474563     0.16400
O914        O  0.85243484  0.16437284  0.32444582    -0.60600
H915        H  0.87140887  0.17168174  0.31108116     0.43400
H916        H  0.91902998  0.19481300  0.42429329     0.43300
C917        C  0.07353917  0.10495180  0.39295669    -0.05700
C918        C  0.06522936  0.12847489  0.37209780    -0.33100
C919        C  0.09181041  0.15727577  0.36398005     0.36100
C920        C  0.12882242  0.16135047  0.37590745    -0.06100
C921        C  0.13694521  0.13832214  0.39721484    -0.33000
C922        C  0.10894882  0.11083537  0.40616983     0.36000
H923        H  0.03706524  0.12577001  0.36250743     0.16400
O924        O  0.08167405  0.18000740  0.34370696    -0.60500
H925        H  0.16505567  0.14133262  0.40678112     0.16400
O926        O  0.11680236  0.08920092  0.42729482    -0.60600
H927        H  0.10967045  0.10720665  0.44114570     0.43400
H928        H  0.06683875  0.20319225  0.35041457     0.43300
C929        C  0.86530148  0.96159881  0.38809810    -0.05700
C930        C  0.87002984  0.95357273  0.36238801    -0.33100
C931        C  0.84223028  0.93074116  0.34888155     0.36100
C932        C  0.80873711  0.91462445  0.36081805    -0.06100
C933        C  0.80396904  0.92256665  0.38644330    -0.33000
C934        C  0.83158152  0.94552419  0.39993673     0.36000
H935        H  0.89547272  0.96529425  0.35237903     0.16400
O936        O  0.84915253  0.92298100  0.32435584    -0.60500
H937        H  0.77836721  0.91076448  0.39628342     0.16400
O938        O  0.82474108  0.95247368  0.42456636    -0.60600
H939        H  0.83864127  0.93051477  0.43346655     0.43400
H940        H  0.83688386  0.94566749  0.31521235     0.43300
C941        C  0.48862441  0.72004056  0.28571688    -0.05700
C942        C  0.51131206  0.72348617  0.30748368    -0.33100
C943        C  0.54690327  0.74547371  0.30816423     0.36100
C944        C  0.56138345  0.76562113  0.28677611    -0.06100
C945        C  0.53916409  0.76185588  0.26473955    -0.33000
C946        C  0.50356208  0.73885239  0.26400289     0.36000
H947        H  0.50122665  0.70917351  0.32445031     0.16400
O948        O  0.56696714  0.74745459  0.33023813    -0.60500
H949        H  0.54956473  0.77646904  0.24795804     0.16400
O950        O  0.48297824  0.73631342  0.24218355    -0.60600
H951        H  0.49519001  0.71359902  0.23321605     0.43400
H952        H  0.55679207  0.77184027  0.33850835     0.43300
C953        C  0.35540439  0.80001998  0.34724773    -0.05700
C954        C  0.33728431  0.81719441  0.36793483    -0.33100
C955        C  0.35309727  0.85182919  0.37804357     0.36100
C956        C  0.38714900  0.86919666  0.36728552    -0.06100
C957        C  0.40067752  0.85634213  0.34422554    -0.33000
C958        C  0.38471044  0.82168535  0.33398856     0.36000
H959        H  0.31373192  0.80168301  0.37783627     0.16400
O960        O  0.33800434  0.86581376  0.39995162    -0.60500
H961        H  0.42618692  0.87049442  0.33551333     0.16400
O962        O  0.40060542  0.80719392  0.31243553    -0.60600
H963        H  0.38280208  0.81708775  0.29913117     0.43400
H964        H  0.32067664  0.88860238  0.39521683     0.43300
C965        C  0.39914449  0.62700562  0.38148132    -0.05700
C966        C  0.40726699  0.63678685  0.40609859    -0.33100
C967        C  0.43476118  0.61397411  0.41951613     0.36100
C968        C  0.45440314  0.58181825  0.40777111    -0.06100
C969        C  0.43982628  0.56767129  0.38520006    -0.33000
C970        C  0.41262090  0.59032996  0.37186215     0.36000
H971        H  0.39504994  0.66374818  0.41417143     0.16400
O972        O  0.44425829  0.62498945  0.44323726    -0.60500
H973        H  0.45279137  0.54155601  0.37653211     0.16400
O974        O  0.40078213  0.57749922  0.34890171    -0.60600
H975        H  0.42456413  0.58010956  0.33813907     0.43400
H976        H  0.45880728  0.65076462  0.44164457     0.43300
C977        C  0.00636706  0.21404555  0.46076496    -0.05700
C978        C  0.04765542  0.21765738  0.45692848    -0.33100
C979        C  0.06681735  0.25544737  0.45673376     0.36100
C980        C  0.04472901  0.29116877  0.45946513    -0.06100
C981        C  0.00343112  0.28764645  0.46294829    -0.33000
C982        C  0.98446244  0.24979703  0.46404917     0.36000
H983        H  0.06531223  0.19096095  0.45407720     0.16400
O984        O  0.10695318  0.25714251  0.45250039    -0.60500
H985        H  0.98565365  0.31447042  0.46493058     0.16400
O986        O  0.94404775  0.24832658  0.46703301    -0.60600
H987        H  0.93962552  0.25039705  0.48513802     0.43400
H988        H  0.11937094  0.25287080  0.46894726     0.43300
C989        C  0.11135050  0.36428758  0.37073159    -0.05700
C990        C  0.13345946  0.37385635  0.34928211    -0.33100
C991        C  0.16100380  0.34669263  0.33978116     0.36100
C992        C  0.16761360  0.31043546  0.35238354    -0.06100
C993        C  0.14431459  0.30020637  0.37296685    -0.33000
C994        C  0.11599533  0.32633347  0.38194937     0.36000
H995        H  0.13013780  0.40274187  0.34020475     0.16400
O996        O  0.18242250  0.35648971  0.31897639    -0.60500
H997        H  0.14753729  0.27128474  0.38205499     0.16400
O998        O  0.09365397  0.31456285  0.40199347    -0.60600
H999        H  0.11225712  0.31462647  0.41620978     0.43400
H1000       H  0.16523844  0.34879444  0.30486764     0.43300
C1001       C  0.95909774  0.41174559  0.40108839    -0.05700
C1002       C  0.95274394  0.37261970  0.41025876    -0.33100
C1003       C  0.92413460  0.34811478  0.39964462     0.36100
C1004       C  0.90076373  0.36345767  0.38047153    -0.06100
C1005       C  0.90467501  0.40342313  0.37267934    -0.33000
C1006       C  0.93415884  0.42760262  0.38272066     0.36000
H1007       H  0.97200169  0.35985496  0.42428497     0.16400
O1008       O  0.91980951  0.30918835  0.40766404    -0.60500
H1009       H  0.88589814  0.41532807  0.35810640     0.16400
O1010       O  0.93966768  0.46577590  0.37367421    -0.60600
H1011       H  0.92380782  0.48320332  0.38470016     0.43400
H1012       H  0.94024280  0.29380073  0.39854719     0.43300
C1013       C  0.23306164  0.58887335  0.35662032    -0.05700
C1014       C  0.22684270  0.59472177  0.38232269    -0.33100
C1015       C  0.19824843  0.57272013  0.39574453     0.36100
C1016       C  0.17421352  0.54454361  0.38362494    -0.06100
C1017       C  0.18013499  0.53883107  0.35791339    -0.33000
C1018       C  0.20933776  0.56025768  0.34456330     0.36000
H1019       H  0.24438740  0.61656221  0.39232011     0.16400
O1020       O  0.19324979  0.58004753  0.42050954    -0.60500
H1021       H  0.16255165  0.51681850  0.34807698     0.16400
O1022       O  0.21459294  0.55253495  0.31986880    -0.60600
H1023       H  0.23432408  0.53053072  0.31927021     0.43400
H1024       H  0.21331096  0.56313011  0.42899268     0.43300
C1025       C  0.36423670  0.44853583  0.88578247    -0.05700
C1026       C  0.37307584  0.43348668  0.86181820    -0.33100
C1027       C  0.34420237  0.41440687  0.84704006     0.36100
C1028       C  0.30527613  0.40957618  0.85590515    -0.06100
C1029       C  0.29651866  0.42424546  0.87987383    -0.33000
C1030       C  0.32521514  0.44355035  0.89458143     0.36000
H1031       H  0.40265634  0.43692268  0.85417906     0.16400
O1032       O  0.35468312  0.40005129  0.82421997    -0.60500
H1033       H  0.26687043  0.42068580  0.88741575     0.16400
O1034       O  0.31442671  0.45787285  0.91735452    -0.60600
H1035       H  0.30351547  0.48500629  0.91409842     0.43400
H1036       H  0.36253687  0.37176421  0.82716792     0.43300
C1037       C  0.55210897  0.77355153  0.95826205    -0.05700
C1038       C  0.51108720  0.77121847  0.96308985    -0.33100
C1039       C  0.49075569  0.73404246  0.96362270     0.36100
C1040       C  0.51089792  0.69782337  0.95841708    -0.06100
C1041       C  0.55190407  0.70036508  0.95310779    -0.33000
C1042       C  0.57245915  0.73745561  0.95340205     0.36000
H1043       H  0.49464135  0.79846538  0.96666602     0.16400
O1044       O  0.45067556  0.73382312  0.96811114    -0.60500
H1045       H  0.56826949  0.67338815  0.94872323     0.16400
O1046       O  0.61210821  0.73830476  0.94758862    -0.60600
H1047       H  0.62600809  0.73123898  0.96319251     0.43400
H1048       H  0.44808962  0.73420064  0.98640455     0.43300
C1049       C  0.05185021  0.27827617  0.78868858    -0.05700
C1050       C  0.03661187  0.26514025  0.81169629    -0.33100
C1051       C  0.00527584  0.23746409  0.81356248     0.36100
C1052       C  0.98689128  0.22173127  0.79211198    -0.06100
C1053       C  0.00134307  0.23538897  0.76891740    -0.33000
C1054       C  0.03339638  0.26317478  0.76710437     0.36000
H1055       H  0.04944952  0.27591860  0.82879901     0.16400
O1056       O  0.99257305  0.22666102  0.83680919    -0.60500
H1057       H  0.98781085  0.22450249  0.75205429     0.16400
O1058       O  0.04645741  0.27500249  0.74413592    -0.60600
H1059       H  0.02944837  0.29809145  0.73950212     0.43400
H1060       H  0.00948940  0.20363512  0.84168475     0.43300
C1061       C  0.73970803  0.08658753  0.86646439    -0.05700
C1062       C  0.74697962  0.07646871  0.89165478    -0.33100
C1063       C  0.72016389  0.05318108  0.90580592     0.36100
C1064       C  0.68480606  0.03912498  0.89509638    -0.06100
C1065       C  0.67755363  0.04954495  0.86988769    -0.33000
C1066       C  0.70450095  0.07251484  0.85571528     0.36000
H1067       H  0.77391277  0.08666645  0.90062360     0.16400
O1068       O  0.72928865  0.04401286  0.92991547    -0.60500
H1069       H  0.65085656  0.03934885  0.86067032     0.16400
O1070       O  0.69529432  0.08208595  0.83166415    -0.60600
H1071       H  0.70571313  0.05956646  0.82168616     0.43400
H1072       H  0.71691414  0.06553493  0.93986019     0.43300
C1073       C  0.89164527  0.28353042  0.86582633    -0.05700
C1074       C  0.93104303  0.28150943  0.87413961    -0.33100
C1075       C  0.95001160  0.31536540  0.88321499     0.36100
C1076       C  0.92960390  0.35202570  0.88369684    -0.06100
C1077       C  0.89039277  0.35429386  0.87492411    -0.33000
C1078       C  0.87123141  0.32012222  0.86611979     0.36000
H1079       H  0.94695697  0.25330367  0.87410029     0.16400
O1080       O  0.98862995  0.31250137  0.89115180    -0.60500
H1081       H  0.87420210  0.38231809  0.87558084     0.16400
O1082       O  0.83280175  0.32276476  0.85788684    -0.60600
H1083       H  0.83494594  0.32837455  0.83987234     0.43400
H1084       H  0.98707233  0.30055517  0.90800960     0.43300
C1085       C  0.07931590  0.42616942  0.90663026    -0.05700
C1086       C  0.09340575  0.44198127  0.88419155    -0.33100
C1087       C  0.12224652  0.42153625  0.87096941     0.36100
C1088       C  0.13779437  0.38559758  0.88067883    -0.06100
C1089       C  0.12934901  0.37419386  0.90505383    -0.33000
C1090       C  0.09986511  0.39420342  0.91813422     0.36000
H1091       H  0.07906487  0.46759024  0.87559222     0.16400
O1092       O  0.13320577  0.43532479  0.84791759    -0.60500
H1093       H  0.14212963  0.34715555  0.91291341     0.16400
O1094       O  0.08814185  0.37905087  0.94065110    -0.60600
H1095       H  0.07127211  0.35553023  0.93663831     0.43400
H1096       H  0.11043201  0.42922215  0.83690398     0.43300
C1097       C  0.62841666  0.64796835  0.87411842    -0.05700
C1098       C  0.63687068  0.62423773  0.89510344    -0.33100
C1099       C  0.60945430  0.59580009  0.90364690     0.36100
C1100       C  0.57402511  0.58981530  0.89049234    -0.06100
C1101       C  0.56543578  0.61379517  0.86982596    -0.33000
C1102       C  0.59166113  0.64328833  0.86198179     0.36000
H1103       H  0.66488044  0.62739967  0.90476221     0.16400
O1104       O  0.61793589  0.57332257  0.92433567    -0.60500
H1105       H  0.53735312  0.61084527  0.86017794     0.16400
O1106       O  0.58141607  0.66623034  0.84183428    -0.60600
H1107       H  0.56662956  0.68934222  0.84867624     0.43400
H1108       H  0.61093853  0.59063304  0.93854778     0.43300
C1109       C  0.67582620  0.80534642  0.84820664    -0.05700
C1110       C  0.63503007  0.80842576  0.84324993    -0.33100
C1111       C  0.61215505  0.83664908  0.85546351     0.36100
C1112       C  0.63055295  0.86269726  0.87210118    -0.06100
C1113       C  0.67172864  0.86166960  0.87575744    -0.33000
C1114       C  0.69446146  0.83255716  0.86412239     0.36000
H1115       H  0.62026633  0.78681132  0.83150684     0.16400
O1116       O  0.57178069  0.83712623  0.85213513    -0.60500
H1117       H  0.68580143  0.88201904  0.88867274     0.16400
O1118       O  0.73413779  0.82935599  0.86947068    -0.60600
H1119       H  0.74774966  0.84646398  0.85696485     0.43400
H1120       H  0.56748495  0.85274859  0.83667689     0.43300
C1121       C  0.81038603  0.59179740  0.86310027    -0.05700
C1122       C  0.82232000  0.60177960  0.88760205    -0.33100
C1123       C  0.84480522  0.57549509  0.90259314     0.36100
C1124       C  0.85661084  0.53811961  0.89343777    -0.06100
C1125       C  0.84504174  0.52811663  0.86898349    -0.33000
C1126       C  0.82234816  0.55426953  0.85399841     0.36000
H1127       H  0.81409984  0.63036321  0.89548664     0.16400
O1128       O  0.85689458  0.58770805  0.92558883    -0.60500
H1129       H  0.85402463  0.49963657  0.86124503     0.16400
O1130       O  0.81154537  0.54232213  0.83071018    -0.60600
H1131       H  0.83345346  0.55147612  0.81973495     0.43400
H1132       H  0.83441437  0.58116955  0.93680469     0.43300
C1133       C  0.04717926  0.21918905  0.97259521    -0.05700
C1134       C  0.00538814  0.22035497  0.97148747    -0.33100
C1135       C  0.98435742  0.25691737  0.97057421     0.36100
C1136       C  0.00467257  0.29405437  0.97141682    -0.06100
C1137       C  0.04638539  0.29307119  0.97339045    -0.33000
C1138       C  0.06747770  0.25640604  0.97404131     0.36000
H1139       H  0.98869799  0.19269488  0.97159527     0.16400
O1140       O  0.94381218  0.25585731  0.96825933    -0.60500
H1141       H  0.06284745  0.32092292  0.97462929     0.16400
O1142       O  0.10813960  0.25750198  0.97515149    -0.60600
H1143       H  0.11449599  0.26053109  0.99297150     0.43400
H1144       H  0.93873672  0.25709989  0.95017666     0.43300
C1145       C  0.90532427  0.11503787  0.88968231    -0.05700
C1146       C  0.91493801  0.12869667  0.91331436    -0.33100
C1147       C  0.94555579  0.11045996  0.92647661     0.36100
C1148       C  0.96610609  0.07792232  0.91589863    -0.06100
C1149       C  0.95046445  0.05946137  0.89476135    -0.33000
C1150       C  0.92044597  0.07823950  0.88136122     0.36000
H1151       H  0.90243621  0.15639252  0.92021760     0.16400
O1152       O  0.95886041  0.12853161  0.94758464    -0.60500
H1153       H  0.96453243  0.03317809  0.88700629     0.16400
O1154       O  0.90792535  0.06200003  0.85939492    -0.60600
H1155       H  0.92965855  0.06736817  0.84738899     0.43400
H1156       H  0.97698934  0.14990912  0.94148385     0.43300
C1157       C  0.15087126  0.21568820  0.86035906    -0.05700
C1158       C  0.11025890  0.21675365  0.86642166    -0.33100
C1159       C  0.09195100  0.18400933  0.87772174     0.36100
C1160       C  0.11405859  0.14925767  0.88242150    -0.06100
C1161       C  0.15416527  0.14736498  0.87544216    -0.33000
C1162       C  0.17280333  0.18055482  0.86463948     0.36000
H1163       H  0.09287721  0.24359669  0.86320903     0.16400
O1164       O  0.05248777  0.18606743  0.88397852    -0.60500
H1165       H  0.17148164  0.12070765  0.87935719     0.16400
O1166       O  0.21235029  0.17852063  0.85869829    -0.60600
H1167       H  0.21305240  0.17008674  0.84112620     0.43400
H1168       H  0.05164330  0.20141961  0.89964477     0.43300
C1169       C  0.47631443  0.89707780  0.89903143    -0.05700
C1170       C  0.48040819  0.87777657  0.87631056    -0.33100
C1171       C  0.45140983  0.85167180  0.86803837     0.36100
C1172       C  0.41630445  0.84632060  0.88194582    -0.06100
C1173       C  0.41178895  0.86642415  0.90458033    -0.33000
C1174       C  0.44212220  0.89104638  0.91347003     0.36000
H1175       H  0.50723446  0.88136510  0.86539879     0.16400
O1176       O  0.45748671  0.83245054  0.84599579    -0.60500
H1177       H  0.38496101  0.86278133  0.91547312     0.16400
O1178       O  0.43786890  0.90966175  0.93589329    -0.60600
H1179       H  0.44551893  0.88924412  0.94844549     0.43400
H1180       H  0.47354889  0.80846467  0.85021656     0.43300
C1181       C  0.47910982  0.76345635  0.79537732    -0.05700
C1182       C  0.51396773  0.78580567  0.79047629    -0.33100
C1183       C  0.55156994  0.76727842  0.78876653     0.36100
C1184       C  0.55544649  0.72523341  0.79139942    -0.06100
C1185       C  0.52056350  0.70271625  0.79572249    -0.33000
C1186       C  0.48302571  0.72133645  0.79800630     0.36000
H1187       H  0.51226776  0.81812238  0.78848560     0.16400
O1188       O  0.58443454  0.79075517  0.78450270    -0.60500
H1189       H  0.52253837  0.67048513  0.79813567     0.16400
O1190       O  0.45039358  0.69788731  0.80297439    -0.60600
H1191       H  0.43912703  0.69119814  0.78654670     0.43400
H1192       H  0.58780478  0.79116229  0.76625658     0.43300
C1193       C  0.36556733  0.69220030  0.86394569    -0.05700
C1194       C  0.39225015  0.69830301  0.88333470    -0.33100
C1195       C  0.41971845  0.66925735  0.88954062     0.36100
C1196       C  0.41955457  0.63221211  0.87702697    -0.06100
C1197       C  0.39215289  0.62577335  0.85778648    -0.33000
C1198       C  0.36574592  0.65602676  0.85082494     0.36000
H1199       H  0.39334606  0.72677268  0.89293931     0.16400
O1200       O  0.44597805  0.67740815  0.90824938    -0.60500
H1201       H  0.39133671  0.59747765  0.84803790     0.16400
O1202       O  0.33989785  0.64986204  0.83159577    -0.60600
H1203       H  0.35544594  0.65577560  0.81638387     0.43400
H1204       H  0.46885913  0.69089858  0.90008543     0.43300
C1205       C  0.18899451  0.96665551  0.90035481    -0.05700
C1206       C  0.19603593  0.97113801  0.87458872    -0.33100
C1207       C  0.21829097  0.94301501  0.86098875     0.36100
C1208       C  0.23381901  0.90871094  0.87280947    -0.06100
C1209       C  0.22687032  0.90451255  0.89869343    -0.33000
C1210       C  0.20493972  0.93285389  0.91228960     0.36000
H1211       H  0.18397886  0.99679458  0.86476062     0.16400
O1212       O  0.22410593  0.94929598  0.83612529    -0.60500
H1213       H  0.23849486  0.87889492  0.90873308     0.16400
O1214       O  0.19839911  0.92647850  0.93707838    -0.60600
H1215       H  0.17365721  0.91029501  0.93799150     0.43400
H1216       H  0.24816307  0.96646917  0.83493993     0.43300
C1217       C  0.98820011  0.48178310  0.99478286    -0.05700
C1218       C  0.01930570  0.46262861  0.00763340    -0.33100
C1219       C  0.05399804  0.48317561  0.01397947     0.36100
C1220       C  0.05843435  0.52394980  0.00749590    -0.06100
C1221       C  0.02734381  0.54316402  0.99464561    -0.33000
C1222       C  0.99264710  0.52253060  0.98820682     0.36000
H1223       H  0.01718666  0.43117030  0.01266760     0.16400
O1224       O  0.08346171  0.46279574  0.02623963    -0.60500
H1225       H  0.02955586  0.57463552  0.98965760     0.16400
O1226       O  0.96322548  0.54272719  0.97578441    -0.60600
H1227       H  0.97367160  0.54738017  0.95882108     0.43400
H1228       H  0.07375307  0.45940867  0.04347855     0.43300
C1229       C  0.23901249  0.55760240  0.00827362    -0.05700
C1230       C  0.24058500  0.55829717  0.98213545    -0.33100
C1231       C  0.27682950  0.55534421  0.96932892     0.36100
C1232       C  0.31269811  0.55175859  0.98255420    -0.06100
C1233       C  0.31085999  0.54867103  0.00858438    -0.33000
C1234       C  0.27464140  0.55115781  0.02137263     0.36000
H1235       H  0.21366682  0.56245096  0.97146647     0.16400
O1236       O  0.27686432  0.55793302  0.94396706    -0.60500
H1237       H  0.33790547  0.54548870  0.01926157     0.16400
O1238       O  0.27494071  0.54981984  0.04675622    -0.60600
H1239       H  0.27409807  0.52086986  0.05110042     0.43400
H1240       H  0.27908578  0.58700494  0.94013060     0.43300
C1241       C  0.28844978  0.27786949  0.23681785    -0.05700
C1242       C  0.24712164  0.28219959  0.23740170    -0.33100
C1243       C  0.22297142  0.25210318  0.24741427     0.36100
C1244       C  0.24002857  0.21629557  0.25676611    -0.06100
C1245       C  0.28133522  0.21167198  0.25577712    -0.33000
C1246       C  0.30548859  0.24186983  0.24583405     0.36000
H1247       H  0.23335930  0.30941948  0.23052274     0.16400
O1248       O  0.18278869  0.25863230  0.24840690    -0.60500
H1249       H  0.29513430  0.18460298  0.26285117     0.16400
O1250       O  0.34572824  0.23567560  0.24505710    -0.60600
H1251       H  0.35077291  0.22294404  0.22881004     0.43400
H1252       H  0.17821354  0.27256116  0.26433051     0.43300
C1253       C  0.32093982  0.45839809  0.23339036    -0.05700
C1254       C  0.32102660  0.49326741  0.21865462    -0.33100
C1255       C  0.32316172  0.53120897  0.22951743     0.36100
C1256       C  0.32446706  0.53462588  0.25553260    -0.06100
C1257       C  0.32016635  0.49986541  0.27017539    -0.33000
C1258       C  0.31850468  0.46200558  0.25932355     0.36000
H1259       H  0.32220656  0.49114557  0.19865051     0.16400
O1260       O  0.32461240  0.56461547  0.21453839    -0.60500
H1261       H  0.32035152  0.50171725  0.29020139     0.16400
O1262       O  0.31650027  0.42865361  0.27431297    -0.60600
H1263       H  0.28775408  0.42411153  0.27725702     0.43400
H1264       H  0.35236880  0.56609989  0.20841609     0.43300
C1265       C  0.18573031  0.45833226  0.10629631    -0.05700
C1266       C  0.18387253  0.45443965  0.13252675    -0.33100
C1267       C  0.20781408  0.42741695  0.14577584     0.36100
C1268       C  0.23479121  0.40301388  0.13314360    -0.06100
C1269       C  0.23705541  0.40702607  0.10695597    -0.33000
C1270       C  0.21319835  0.43436925  0.09367150     0.36000
H1271       H  0.16363074  0.47264196  0.14321477     0.16400
O1272       O  0.20448256  0.42533650  0.17107052    -0.60500
H1273       H  0.25778689  0.38900491  0.09651165     0.16400
O1274       O  0.21659551  0.43671086  0.06840408    -0.60600
H1275       H  0.23827031  0.45633398  0.06530512     0.43400
H1276       H  0.18225039  0.40639898  0.17428400     0.43300
C1277       C  0.50307077  0.00621112  0.01457605    -0.05700
C1278       C  0.49962894  0.96437675  0.01305325    -0.33100
C1279       C  0.53106647  0.94117965  0.00397081     0.36100
C1280       C  0.56715706  0.95973135  0.99650495    -0.06100
C1281       C  0.57094729  0.00136384  0.99883724    -0.33000
C1282       C  0.53971212  0.02446633  0.00790671     0.36000
H1283       H  0.47214938  0.94960888  0.01832408     0.16400
O1284       O  0.52562737  0.90051845  0.00192706    -0.60500
H1285       H  0.59825304  0.01635268  0.99343095     0.16400
O1286       O  0.54553349  0.06507688  0.01002354    -0.60600
H1287       H  0.55775640  0.06881881  0.02655265     0.43400
H1288       H  0.51356925  0.89657112  0.98536317     0.43300
C1289       C  0.32152199  0.05534183  0.01526154    -0.05700
C1290       C  0.28654741  0.05425068  0.02941236    -0.33100
C1291       C  0.24928546  0.05980520  0.01830230     0.36100
C1292       C  0.24617887  0.06668042  0.99246770    -0.06100
C1293       C  0.28079676  0.06526519  0.97810026    -0.33000
C1294       C  0.31812216  0.06000342  0.98919197     0.36000
H1295       H  0.28807077  0.05045020  0.04932995     0.16400
O1296       O  0.21611102  0.05915001  0.03306252    -0.60500
H1297       H  0.27919375  0.06988436  0.95824350     0.16400
O1298       O  0.35110534  0.05984485  0.97425210    -0.60600
H1299       H  0.35694003  0.08850614  0.97067314     0.43400
H1300       H  0.20561903  0.03137857  0.03190360     0.43300
C1301       C  0.38509067  0.20369926  0.13402966    -0.05700
C1302       C  0.42514990  0.20794715  0.12737526    -0.33100
C1303       C  0.44750484  0.17494220  0.12108318     0.36100
C1304       C  0.42978741  0.13670842  0.12147259    -0.06100
C1305       C  0.38938762  0.13234191  0.12753565    -0.33000
C1306       C  0.36681940  0.16585485  0.13373043     0.36000
H1307       H  0.43949161  0.23715466  0.12735143     0.16400
O1308       O  0.48693136  0.18028294  0.11533673    -0.60500
H1309       H  0.37522167  0.10310494  0.12707488     0.16400
O1310       O  0.32751910  0.16127591  0.13983490    -0.60600
H1311       H  0.32728634  0.15570468  0.15790038     0.43400
H1312       H  0.48731042  0.19077997  0.09809765     0.43300
C1313       C  0.28902627  0.71639406  0.25752035    -0.05700
C1314       C  0.30646288  0.74796339  0.24384477    -0.33100
C1315       C  0.28518392  0.78258362  0.23780263     0.36100
C1316       C  0.24523883  0.78633607  0.24530217    -0.06100
C1317       C  0.22785415  0.75497904  0.25923213    -0.33000
C1318       C  0.24937057  0.72051340  0.26552317     0.36000
H1319       H  0.33710983  0.74620357  0.23784173     0.16400
O1320       O  0.30397839  0.81261856  0.22471522    -0.60500
H1321       H  0.19721953  0.75692905  0.26523753     0.16400
O1322       O  0.23115881  0.69117443  0.27944810    -0.60600
H1323       H  0.23425066  0.69982105  0.29688221     0.43400
H1324       H  0.30928807  0.80145448  0.20805841     0.43300
C1325       C  0.20330615  0.04133729  0.27043032    -0.05700
C1326       C  0.20194462  0.00543341  0.28406699    -0.33100
C1327       C  0.20280603  0.96822754  0.27200225     0.36100
C1328       C  0.20495154  0.96645731  0.24578105    -0.06100
C1329       C  0.20987656  0.00235544  0.23246943    -0.33000
C1330       C  0.20891854  0.03943354  0.24448111     0.36000
H1331       H  0.19820534  0.00614314  0.30399221     0.16400
O1332       O  0.20015450  0.93387914  0.28605287    -0.60500
H1333       H  0.21256101  0.00194427  0.21247706     0.16400
O1334       O  0.21322502  0.07381954  0.23057571    -0.60600
H1335       H  0.18730910  0.07772252  0.22218964     0.43400
H1336       H  0.22802642  0.92586084  0.28924978     0.43300
C1337       C  0.17508802  0.70875970  0.14262746    -0.05700
C1338       C  0.16212643  0.67636164  0.15733812    -0.33100
C1339       C  0.14059178  0.64502150  0.14681848     0.36100
C1340       C  0.13098834  0.64672669  0.12151604    -0.06100
C1341       C  0.14383830  0.67907057  0.10692163    -0.33000
C1342       C  0.16636936  0.70955226  0.11712142     0.36000
H1343       H  0.16809539  0.67567836  0.17705373     0.16400
O1344       O  0.12724267  0.61413392  0.16158539    -0.60500
H1345       H  0.13662254  0.68076802  0.08739909     0.16400
O1346       O  0.17753525  0.74114314  0.10222299    -0.60600
H1347       H  0.20266534  0.73257977  0.09429076     0.43400
H1348       H  0.15003368  0.59550957  0.16309256     0.43300
C1349       C  0.37045222  0.95051172  0.11629423    -0.05700
C1350       C  0.32953659  0.95796440  0.11488092    -0.33100
C1351       C  0.30292981  0.94077018  0.13222847     0.36100
C1352       C  0.31673349  0.91612151  0.15190190    -0.06100
C1353       C  0.35749229  0.90820513  0.15310739    -0.33000
C1354       C  0.38415027  0.92538731  0.13587674     0.36000
H1355       H  0.31819566  0.97803281  0.10071253     0.16400
O1356       O  0.26297131  0.94725543  0.12938692    -0.60500
H1357       H  0.36860567  0.88727049  0.16687223     0.16400
O1358       O  0.42383398  0.91672865  0.13800685    -0.60600
H1359       H  0.43330061  0.93238918  0.15241468     0.43400
H1360       H  0.25393222  0.92675609  0.11739038     0.43300
C1361       C  0.75211817  0.22282663  0.24113405    -0.05700
C1362       C  0.73164705  0.25320390  0.25399234    -0.33100
C1363       C  0.75142170  0.28638457  0.26379543     0.36100
C1364       C  0.79276115  0.29018250  0.26093620    -0.06100
C1365       C  0.81338070  0.25976600  0.24817134    -0.33000
C1366       C  0.79348708  0.22655408  0.23824402     0.36000
H1367       H  0.69973509  0.25173263  0.25638585     0.16400
O1368       O  0.72973463  0.31510514  0.27579716    -0.60500
H1369       H  0.84530472  0.26143447  0.24587840     0.16400
O1370       O  0.81493934  0.19792401  0.22600830    -0.60600
H1371       H  0.81797862  0.20834134  0.20885833     0.43400
H1372       H  0.72589108  0.30457081  0.29285941     0.43300
C1373       C  0.71036297  0.04202632  0.23555138    -0.05700
C1374       C  0.71069449  0.04034883  0.26165928    -0.33100
C1375       C  0.71014558  0.00357538  0.27450223     0.36100
C1376       C  0.70865579  0.96722046  0.26133817    -0.06100
C1377       C  0.70977895  0.96889661  0.23524164    -0.33000
C1378       C  0.71088653  0.00567023  0.22240843     0.36000
H1379       H  0.71041025  0.06779369  0.27229815     0.16400
O1380       O  0.70839694  0.00376687  0.29987797    -0.60500
H1381       H  0.70879904  0.94148504  0.22458735     0.16400
O1382       O  0.70970301  0.00557360  0.19702775    -0.60600
H1383       H  0.73780160  0.00329102  0.19171407     0.43400
H1384       H  0.73644172  0.00517237  0.30540832     0.43300
C1385       C  0.56503286  0.24016373  0.20560605    -0.05700
C1386       C  0.54178163  0.24414553  0.22720706    -0.33100
C1387       C  0.50494277  0.26471735  0.22684286     0.36100
C1388       C  0.49014785  0.28163682  0.20453623    -0.06100
C1389       C  0.51350193  0.27727083  0.18304604    -0.33000
C1390       C  0.55008150  0.25707188  0.18340773     0.36000
H1391       H  0.55231336  0.23153619  0.24452595     0.16400
O1392       O  0.48367140  0.26776602  0.24840644    -0.60500
H1393       H  0.50329222  0.28944930  0.16553197     0.16400
O1394       O  0.57066861  0.25347285  0.16159707    -0.60600
H1395       H  0.56173110  0.22762728  0.15445879     0.43400
H1396       H  0.46744215  0.24290605  0.24933129     0.43300
C1397       C  0.58107784  0.08796879  0.11030243    -0.05700
C1398       C  0.61469503  0.09493736  0.09552075    -0.33100
C1399       C  0.64343695  0.12263626  0.10288243     0.36100
C1400       C  0.63800267  0.14419659  0.12497431    -0.06100
C1401       C  0.60406060  0.13759174  0.13938649    -0.33000
C1402       C  0.57611726  0.10935375  0.13252938     0.36000
H1403       H  0.61829405  0.07941750  0.07809557     0.16400
O1404       O  0.67625133  0.12874330  0.08824751    -0.60500
H1405       H  0.59917784  0.15390831  0.15639966     0.16400
O1406       O  0.54345738  0.10383050  0.14743946    -0.60600
H1407       H  0.52546107  0.12646585  0.14350897     0.43400
H1408       H  0.66970312  0.15233955  0.07774540     0.43300
C1409       C  0.99845028  0.98623425  0.01240676    -0.05700
C1410       C  0.03105448  0.96797994  0.00068173    -0.33100
C1411       C  0.06576780  0.98944796  0.99530253     0.36100
C1412       C  0.06858948  0.03050461  0.00125606    -0.06100
C1413       C  0.03639774  0.04859230  0.01352492    -0.33000
C1414       C  0.00169985  0.02698073  0.01906489     0.36000
H1415       H  0.02998251  0.93656434  0.99570004     0.16400
O1416       O  0.09614954  0.97003309  0.98348458    -0.60500
H1417       H  0.03755190  0.08005693  0.01838938     0.16400
O1418       O  0.97147238  0.04606904  0.03122342    -0.60600
H1419       H  0.95530226  0.05876467  0.01799934     0.43400
H1420       H  0.11358034  0.95993927  0.99692878     0.43300
C1421       C  0.74304939  0.93250826  0.98657191    -0.05700
C1422       C  0.74497403  0.92769492  0.01252558    -0.33100
C1423       C  0.78069122  0.93252410  0.02539572     0.36100
C1424       C  0.81571917  0.94190975  0.01238998    -0.06100
C1425       C  0.81345649  0.94927637  0.98670391    -0.33000
C1426       C  0.77750133  0.94508800  0.97384255     0.36000
H1427       H  0.71887725  0.91875820  0.02296686     0.16400
O1428       O  0.78156020  0.92450166  0.05033649    -0.60500
H1429       H  0.84002878  0.95694210  0.97634314     0.16400
O1430       O  0.77711502  0.95082330  0.94867466    -0.60600
H1431       H  0.77495369  0.98025657  0.94627635     0.43400
H1432       H  0.77459166  0.95020568  0.05837381     0.43300
C1433       C  0.14329000  0.86966724  0.12476978    -0.05700
C1434       C  0.13170461  0.90678346  0.13415147    -0.33100
C1435       C  0.10164799  0.92819957  0.12253834     0.36100
C1436       C  0.08329631  0.91206294  0.10144948    -0.06100
C1437       C  0.09790465  0.87673960  0.09079227    -0.33000
C1438       C  0.12775482  0.85527438  0.10253497     0.36000
H1439       H  0.14454462  0.91809644  0.15114046     0.16400
O1440       O  0.08853443  0.96324884  0.13285085    -0.60500
H1441       H  0.08385153  0.86387651  0.07464498     0.16400
O1442       O  0.13917874  0.81883734  0.09334611    -0.60600
H1443       H  0.16242491  0.82476630  0.08262522     0.43400
H1444       H  0.10406050  0.98477193  0.12450282     0.43300
C1445       C  0.86877194  0.04156803  0.11161073    -0.05700
C1446       C  0.86902675  0.04294818  0.13797316    -0.33100
C1447       C  0.84373158  0.06846733  0.15153181     0.36100
C1448       C  0.81754653  0.09424055  0.13904801    -0.06100
C1449       C  0.81692792  0.09243872  0.11272927    -0.33000
C1450       C  0.84175336  0.06657500  0.09919503     0.36000
H1451       H  0.88903666  0.02392716  0.14841444     0.16400
O1452       O  0.84607883  0.06891728  0.17687008    -0.60500
H1453       H  0.79675156  0.11130557  0.10229306     0.16400
O1454       O  0.83999260  0.06702136  0.07382758    -0.60600
H1455       H  0.81884264  0.04748053  0.06954905     0.43400
H1456       H  0.82786251  0.04730184  0.18258237     0.43300
C1457       C  0.04692354  0.71491894  0.03320008    -0.05700
C1458       C  0.06906939  0.75086198  0.03235013    -0.33100
C1459       C  0.05039232  0.78885223  0.03233808     0.36100
C1460       C  0.00849272  0.79214784  0.03262066    -0.06100
C1461       C  0.98627354  0.75617971  0.03251574    -0.33000
C1462       C  0.00497992  0.71813344  0.03309307     0.36000
H1463       H  0.10120951  0.74956926  0.03245451     0.16400
O1464       O  0.07361400  0.82271976  0.03214457    -0.60500
H1465       H  0.95413786  0.75752131  0.03284024     0.16400
O1466       O  0.98181122  0.68420716  0.03368923    -0.60600
H1467       H  0.97866839  0.67632185  0.01612349     0.43400
H1468       H  0.07569951  0.83071312  0.01446626     0.43300
C1469       C  0.56093459  0.46638226  0.00519426    -0.05700
C1470       C  0.52878889  0.44575740  0.99428770    -0.33100
C1471       C  0.49560584  0.46640614  0.98508257     0.36100
C1472       C  0.49369541  0.50847792  0.98701521    -0.06100
C1473       C  0.52640969  0.52899925  0.99727341    -0.33000
C1474       C  0.55955533  0.50855835  0.00624177     0.36000
H1475       H  0.52884612  0.41330333  0.99329411     0.16400
O1476       O  0.46500006  0.44499086  0.97481397    -0.60500
H1477       H  0.52668287  0.56144493  0.99838054     0.16400
O1478       O  0.59054325  0.53038698  0.01576808    -0.60600
H1479       H  0.58228987  0.53741186  0.03283328     0.43400
H1480       H  0.47275832  0.44102685  0.95727895     0.43300
C1481       C  0.73586436  0.44221432  0.01953467    -0.05700
C1482       C  0.77104419  0.44050067  0.03316808    -0.33100
C1483       C  0.80782244  0.44157595  0.02112244     0.36100
C1484       C  0.80979933  0.44422253  0.99487343    -0.06100
C1485       C  0.77462810  0.45034780  0.98160071    -0.33000
C1486       C  0.73786318  0.44929001  0.99369486     0.36000
H1487       H  0.77009021  0.43566278  0.05302824     0.16400
O1488       O  0.84148199  0.43772981  0.03521398    -0.60500
H1489       H  0.77532225  0.45370576  0.96163365     0.16400
O1490       O  0.70388729  0.45439883  0.98001297    -0.60600
H1491       H  0.70005320  0.42884947  0.97098620     0.43400
H1492       H  0.85020997  0.46560811  0.03860645     0.43300
C1493       C  0.51586941  0.19816596  0.04017854    -0.05700
C1494       C  0.49342819  0.23221703  0.03348127    -0.33100
C1495       C  0.50991578  0.27120412  0.03375218     0.36100
C1496       C  0.54992481  0.27741451  0.04047780    -0.06100
C1497       C  0.57271576  0.24345604  0.04679385    -0.33000
C1498       C  0.55607405  0.20441307  0.04694238     0.36000
H1499       H  0.46250550  0.22878041  0.02838773     0.16400
O1500       O  0.48657785  0.30306282  0.02706721    -0.60500
H1501       H  0.60349264  0.24727726  0.05215574     0.16400
O1502       O  0.57947239  0.17269127  0.05392206    -0.60600
H1503       H  0.59187533  0.16312586  0.03839189     0.43400
H1504       H  0.49178596  0.30739002  0.00916661     0.43300
C1505       C  0.45376914  0.41557119  0.08708310    -0.05700
C1506       C  0.43334922  0.43224530  0.10707042    -0.33100
C1507       C  0.40204337  0.41112458  0.11782687     0.36100
C1508       C  0.39181842  0.37317780  0.10851084    -0.06100
C1509       C  0.40629951  0.36087511  0.08562424    -0.33000
C1510       C  0.43694753  0.38250454  0.07447633     0.36000
H1511       H  0.44432264  0.45907697  0.11603773     0.16400
O1512       O  0.38399041  0.42569969  0.13873011    -0.60500
H1513       H  0.39736074  0.33227812  0.07792777     0.16400
O1514       O  0.45373228  0.36760782  0.05334673    -0.60600
H1515       H  0.44092596  0.38256462  0.03959015     0.43400
H1516       H  0.40447629  0.42481201  0.15190786     0.43300
C1517       C  0.61685204  0.35887562  0.12266939    -0.05700
C1518       C  0.61938287  0.32146167  0.11105626    -0.33100
C1519       C  0.64789028  0.29376674  0.11815390     0.36100
C1520       C  0.67389983  0.30266754  0.13773326    -0.06100
C1521       C  0.67140845  0.33967462  0.14970631    -0.33000
C1522       C  0.64376789  0.36824937  0.14189862     0.36000
H1523       H  0.59976527  0.31368514  0.09592242     0.16400
O1524       O  0.64930395  0.25749058  0.10627577    -0.60500
H1525       H  0.69088217  0.34635562  0.16511770     0.16400
O1526       O  0.64320482  0.40489033  0.15331903    -0.60600
H1527       H  0.66394264  0.42108378  0.14478583     0.43400
H1528       H  0.62577122  0.24226969  0.11227174     0.43300
C1529       C  0.79099998  0.71979817  0.23919781    -0.05700
C1530       C  0.80975895  0.74764631  0.25499220    -0.33100
C1531       C  0.78919318  0.78045251  0.26467135     0.36100
C1532       C  0.74907842  0.78634271  0.25846257    -0.06100
C1533       C  0.73033305  0.75825478  0.24283284    -0.33000
C1534       C  0.75076206  0.72543579  0.23327514     0.36000
H1535       H  0.84074818  0.74423231  0.25991070     0.16400
O1536       O  0.80877370  0.80652868  0.27999819    -0.60500
H1537       H  0.69933942  0.76142892  0.23786801     0.16400
O1538       O  0.73089180  0.69913601  0.21822561    -0.60600
H1539       H  0.72919813  0.71278530  0.20188268     0.43400
H1540       H  0.80907234  0.79314498  0.29645877     0.43300
C1541       C  0.82379797  0.54273577  0.23994445    -0.05700
C1542       C  0.81609139  0.50646591  0.22782248    -0.33100
C1543       C  0.81487148  0.47022373  0.24107731     0.36100
C1544       C  0.82183792  0.46967395  0.26690794    -0.06100
C1545       C  0.82545450  0.50615161  0.27937283    -0.33000
C1546       C  0.82628446  0.54247668  0.26618681     0.36000
H1547       H  0.81297460  0.50583194  0.20786182     0.16400
O1548       O  0.80866369  0.43525475  0.22837161    -0.60500
H1549       H  0.83013028  0.50644536  0.29922359     0.16400
O1550       O  0.83155960  0.57732145  0.27916739    -0.60600
H1551       H  0.80438770  0.58760184  0.28216960     0.43400
H1552       H  0.78006429  0.42902698  0.23064319     0.43300
C1553       C  0.05445575  0.77342700  0.20888476    -0.05700
C1554       C  0.02063079  0.79010957  0.22029588    -0.33100
C1555       C  0.98303307  0.77105713  0.21906189     0.36100
C1556       C  0.97842522  0.73417740  0.20667662    -0.06100
C1557       C  0.01198986  0.71732138  0.19542183    -0.33000
C1558       C  0.04933962  0.73663123  0.19612521     0.36000
H1559       H  0.02312841  0.81841624  0.22991519     0.16400
O1560       O  0.95086760  0.78891720  0.22992886    -0.60500
H1561       H  0.00918675  0.68905050  0.18576367     0.16400
O1562       O  0.08091197  0.71847832  0.18475213    -0.60600
H1563       H  0.07880671  0.72614527  0.16701846     0.43400
H1564       H  0.95066720  0.77882037  0.24724727     0.43300
C1565       C  0.97737650  0.59653627  0.10528230    -0.05700
C1566       C  0.94211387  0.59825362  0.09159975    -0.33100
C1567       C  0.90936493  0.61889740  0.10089829     0.36100
C1568       C  0.91262557  0.63912978  0.12367048    -0.06100
C1569       C  0.94779608  0.63661714  0.13736546    -0.33000
C1570       C  0.97994821  0.61556282  0.12842361     0.36000
H1571       H  0.94015186  0.58397244  0.07366998     0.16400
O1572       O  0.87518122  0.62058890  0.08714580    -0.60500
H1573       H  0.95071539  0.65136835  0.15510523     0.16400
O1574       O  0.01439525  0.61531918  0.14202294    -0.60600
H1575       H  0.02912575  0.63976421  0.13674636     0.43400
H1576       H  0.86041248  0.59566872  0.09140016     0.43300
C1577       C  0.86709079  0.79589807  0.13449029    -0.05700
C1578       C  0.88967456  0.78953657  0.11310293    -0.33100
C1579       C  0.91713856  0.81799563  0.10515296     0.36100
C1580       C  0.92121871  0.85429267  0.11819975    -0.06100
C1581       C  0.89764551  0.86104229  0.13925822    -0.33000
C1582       C  0.87110879  0.83183711  0.14764979     0.36000
H1583       H  0.88766046  0.76138953  0.10321801     0.16400
O1584       O  0.93918505  0.81013669  0.08438100    -0.60500
H1585       H  0.89993923  0.88887966  0.14941554     0.16400
O1586       O  0.84901616  0.83870951  0.16855576    -0.60600
H1587       H  0.86730428  0.83368856  0.18262289     0.43400
H1588       H  0.96258064  0.79492521  0.09038907     0.43300
C1589       C  0.72778802  0.58433583  0.13971308    -0.05700
C1590       C  0.73685199  0.57132625  0.11544698    -0.33100
C1591       C  0.71011931  0.54842341  0.10132208     0.36100
C1592       C  0.67270256  0.53787726  0.11104546    -0.06100
C1593       C  0.66398526  0.55012809  0.13564847    -0.33000
C1594       C  0.69098857  0.57302078  0.14982573     0.36000
H1595       H  0.76501572  0.57960464  0.10708232     0.16400
O1596       O  0.72097485  0.53695086  0.07794042    -0.60500
H1597       H  0.63583994  0.54212609  0.14408635     0.16400
O1598       O  0.68053972  0.58506973  0.17315996    -0.60600
H1599       H  0.66547128  0.61029867  0.17070071     0.43400
H1600       H  0.73480944  0.51095039  0.08018306     0.43300
C1601       C  0.74666505  0.27777399  0.74142681    -0.05700
C1602       C  0.78716627  0.27515091  0.73589747    -0.33100
C1603       C  0.80998494  0.24335297  0.74496600     0.36100
C1604       C  0.79242883  0.21313116  0.76011879    -0.06100
C1605       C  0.75191796  0.21570934  0.76559058    -0.33000
C1606       C  0.72912162  0.24747915  0.75656668     0.36000
H1607       H  0.80136669  0.29770063  0.72432837     0.16400
O1608       O  0.84968785  0.24288829  0.73926042    -0.60500
H1609       H  0.73767061  0.19315958  0.77714164     0.16400
O1610       O  0.68951643  0.24803965  0.76255043    -0.60600
H1611       H  0.68806195  0.26214006  0.77864115     0.43400
H1612       H  0.85142789  0.22909141  0.72307989     0.43300
C1613       C  0.71023643  0.45748015  0.74202869    -0.05700
C1614       C  0.70913469  0.45774968  0.76818560    -0.33100
C1615       C  0.70862945  0.49396436  0.78139455     0.36100
C1616       C  0.70911671  0.53079712  0.76848605    -0.06100
C1617       C  0.71310139  0.53036389  0.74252259    -0.33000
C1618       C  0.71383853  0.49438837  0.72936143     0.36000
H1619       H  0.70702535  0.42979626  0.77847370     0.16400
O1620       O  0.70551704  0.49288558  0.80672013    -0.60500
H1621       H  0.71408629  0.55828802  0.73213099     0.16400
O1622       O  0.71497469  0.49600571  0.70398816    -0.60600
H1623       H  0.74360989  0.49632544  0.69967192     0.43400
H1624       H  0.67660356  0.49178685  0.81019532     0.43300
C1625       C  0.05406178  0.47902954  0.48766629    -0.05700
C1626       C  0.05041162  0.52001245  0.48223944    -0.33100
C1627       C  0.01775701  0.54197037  0.49047678     0.36100
C1628       C  0.98745262  0.52316234  0.50474262    -0.06100
C1629       C  0.99072027  0.48198924  0.50986117    -0.33000
C1630       C  0.02325836  0.45988959  0.50130929     0.36000
H1631       H  0.07286444  0.53535810  0.47130521     0.16400
O1632       O  0.01587762  0.58187252  0.48415199    -0.60500
H1633       H  0.96812258  0.46673120  0.52072228     0.16400
O1634       O  0.02449837  0.41959185  0.50659173    -0.60600
H1635       H  0.00938415  0.40656396  0.49306792     0.43400
H1636       H  0.03246519  0.59589419  0.49658716     0.43300
C1637       C  0.80739214  0.56337475  0.51021812    -0.05700
C1638       C  0.80533687  0.56411097  0.48410632    -0.52300
C1639       C  0.76883805  0.56703778  0.47169046     0.36100
C1640       C  0.73334497  0.57002639  0.48532044    -0.06100
C1641       C  0.73524328  0.56711529  0.51135185    -0.33000
C1642       C  0.77164885  0.56351280  0.52375865     0.36000
H1643       H  0.83231244  0.56371724  0.47316057     0.16400
O1644       O  0.76859244  0.56982895  0.44634194    -0.60500
H1645       H  0.70834310  0.56874098  0.52232252     0.16400
O1646       O  0.77198164  0.56321208  0.54915406    -0.60600
H1647       H  0.76260288  0.53604601  0.55401548     0.43400
H1648       H  0.76827566  0.54169340  0.44047498     0.43300
C1649       C  0.86079365  0.45768935  0.60844286    -0.05700
C1650       C  0.87013562  0.44410478  0.63283692    -0.33100
C1651       C  0.84269567  0.42275544  0.64774531     0.36100
C1652       C  0.80480346  0.41380945  0.63857026    -0.06100
C1653       C  0.79559179  0.42690048  0.61416128    -0.33000
C1654       C  0.82286695  0.44841015  0.59929857     0.36000
H1655       H  0.89905121  0.45034632  0.64071351     0.16400
O1656       O  0.85406311  0.40910535  0.67066338    -0.60500
H1657       H  0.76676610  0.42002618  0.60632086     0.16400
O1658       O  0.81185226  0.46028632  0.57595569    -0.60600
H1659       H  0.79861722  0.48652391  0.57822203     0.43400
H1660       H  0.84791067  0.43132220  0.68215521     0.43300
C1661       C  0.78287841  0.77652171  0.73541351    -0.05700
C1662       C  0.80254920  0.74800710  0.75046315    -0.33100
C1663       C  0.78277814  0.71453559  0.76034912     0.36100
C1664       C  0.74201351  0.70880418  0.75573144    -0.06100
C1665       C  0.72244845  0.73672224  0.74020088    -0.33000
C1666       C  0.74240862  0.77014544  0.73011146     0.36000
H1667       H  0.83377619  0.75145710  0.75477487     0.16400
O1668       O  0.80358609  0.68842833  0.77513741    -0.60500
H1669       H  0.69116884  0.73314213  0.73607756     0.16400
O1670       O  0.72204572  0.79594215  0.71489223    -0.60600
H1671       H  0.70909206  0.81530140  0.72616013     0.43400
H1672       H  0.81517626  0.66856592  0.76362969     0.43300
C1673       C  0.81653029  0.95983117  0.73659179    -0.05700
C1674       C  0.81726799  0.96080753  0.76260068    -0.33100
C1675       C  0.81913145  0.99727133  0.77521582     0.36100
C1676       C  0.82124743  0.03363179  0.76180077    -0.06100
C1677       C  0.81747897  0.03285512  0.73591081    -0.33000
C1678       C  0.81451544  0.99641051  0.72330581     0.36000
H1679       H  0.81830427  0.93312796  0.77322624     0.16400
O1680       O  0.82280188  0.99672131  0.80050865    -0.60500
H1681       H  0.81846218  0.06057392  0.72530740     0.16400
O1682       O  0.81331364  0.99701994  0.69791638    -0.60600
H1683       H  0.78466575  0.99730832  0.69367470     0.43400
H1684       H  0.79517611  0.99634678  0.80689366     0.43300
C1685       C  0.86148556  0.70707937  0.63231503    -0.05700
C1686       C  0.87054717  0.67610077  0.64898722    -0.33100
C1687       C  0.89434505  0.64432449  0.64142130     0.36100
C1688       C  0.91052234  0.64495319  0.61740381    -0.06100
C1689       C  0.90127814  0.67634307  0.60096897    -0.33000
C1690       C  0.87581414  0.70655928  0.60803542     0.36000
H1691       H  0.86078569  0.67764005  0.66809205     0.16400
O1692       O  0.90441013  0.61490367  0.65813678    -0.60500
H1693       H  0.91432740  0.67815325  0.58267954     0.16400
O1694       O  0.86862020  0.73782183  0.59199051    -0.60600
H1695       H  0.84309324  0.73104582  0.58386244     0.43400
H1696       H  0.88189806  0.59563866  0.65794386     0.43300
C1697       C  0.56382489  0.03261622  0.49852682    -0.05700
C1698       C  0.53271517  0.05180469  0.48562373    -0.33100
C1699       C  0.49848996  0.03085803  0.47862075     0.36100
C1700       C  0.49441776  0.98995528  0.48478568    -0.06100
C1701       C  0.52661431  0.97028509  0.49627804    -0.33000
C1702       C  0.56095756  0.99107375  0.50306858     0.36000
H1703       H  0.53417285  0.08364592  0.48153901     0.16400
O1704       O  0.46896398  0.05106474  0.46635498    -0.60500
H1705       H  0.52525313  0.93845510  0.50041226     0.16400
O1706       O  0.59131968  0.97039314  0.51424191    -0.60600
H1707       H  0.58197446  0.96446426  0.53130909     0.43400
H1708       H  0.47554910  0.04850353  0.44852847     0.43300
C1709       C  0.73856474  0.07226737  0.50921449    -0.05700
C1710       C  0.77197992  0.05951174  0.52265895    -0.33100
C1711       C  0.80925439  0.05593766  0.51105225     0.36100
C1712       C  0.81350958  0.06442860  0.48547636    -0.06100
C1713       C  0.77981352  0.07471096  0.47180860    -0.33000
C1714       C  0.74285003  0.07880572  0.48329428     0.36000
H1715       H  0.76958776  0.05351601  0.54234821     0.16400
O1716       O  0.84132661  0.04388147  0.52483684    -0.60500
H1717       H  0.78241053  0.08159692  0.45222498     0.16400
O1718       O  0.71143885  0.09075434  0.46890130    -0.60600
H1719       H  0.69938069  0.06554849  0.46271580     0.43400
H1720       H  0.85000998  0.06808510  0.53397739     0.43300
C1721       C  0.61221501  0.14665739  0.61785462    -0.05700
C1722       C  0.63917880  0.13802833  0.63707345    -0.33100
C1723       C  0.66284116  0.16832944  0.64708093     0.36100
C1724       C  0.66035201  0.20733657  0.63735358    -0.06100
C1725       C  0.63276530  0.21626419  0.61884266    -0.33000
C1726       C  0.60860232  0.18651985  0.60917425     0.36000
H1727       H  0.64259698  0.10766868  0.64402765     0.16400
O1728       O  0.68939355  0.15928292  0.66551623    -0.60500
H1729       H  0.62942287  0.24675898  0.61201946     0.16400
O1730       O  0.58179989  0.19691607  0.59115868    -0.60600
H1731       H  0.59798344  0.20285542  0.57621291     0.43400
H1732       H  0.67394368  0.16086473  0.68112398     0.43300
C1733       C  0.73207751  0.91580239  0.63262325    -0.05700
C1734       C  0.74530181  0.93469392  0.61048504    -0.33100
C1735       C  0.71985875  0.95811026  0.59556098     0.36100
C1736       C  0.67992499  0.96332946  0.60240370    -0.06100
C1737       C  0.66670857  0.94402453  0.62451161    -0.33000
C1738       C  0.69224421  0.92083678  0.63948456     0.36000
H1739       H  0.77583438  0.93109817  0.60456371     0.16400
O1740       O  0.73487716  0.97686955  0.57488974    -0.60500
H1741       H  0.63614311  0.94702922  0.63046505     0.16400
O1742       O  0.67731578  0.90155573  0.66000673    -0.60600
H1743       H  0.68090489  0.92075191  0.67378262     0.43400
H1744       H  0.73174786  0.95716497  0.56134692     0.43300
C1745       C  0.24889540  0.72266113  0.74092142    -0.05700
C1746       C  0.23283813  0.74201955  0.76180036    -0.33100
C1747       C  0.25313903  0.77323484  0.77363122     0.36100
C1748       C  0.29064560  0.78564903  0.76489935    -0.06100
C1749       C  0.30667297  0.76638292  0.74398576    -0.33000
C1750       C  0.28631242  0.73524264  0.73210692     0.36000
H1751       H  0.20412802  0.73302656  0.76906339     0.16400
O1752       O  0.23653573  0.79022217  0.79422826    -0.60500
H1753       H  0.33536753  0.77541853  0.73671491     0.16400
O1754       O  0.30270285  0.71857360  0.71134794    -0.60600
H1755       H  0.31989047  0.69660587  0.71755865     0.43400
H1756       H  0.21956409  0.81222344  0.78782810     0.43300
C1757       C  0.20864302  0.54504940  0.73025398    -0.05700
C1758       C  0.21238283  0.51052522  0.71557186    -0.33100
C1759       C  0.21365240  0.47199134  0.72639809     0.36100
C1760       C  0.21164753  0.46726660  0.75238581    -0.06100
C1761       C  0.21064259  0.50184770  0.76706640    -0.33000
C1762       C  0.20896473  0.54024629  0.75633225     0.36000
H1763       H  0.21266584  0.51320180  0.69556702     0.16400
O1764       O  0.21575075  0.43910658  0.71133874    -0.60500
H1765       H  0.20899169  0.49911055  0.78705155     0.16400
O1766       O  0.20618077  0.57276215  0.77166525    -0.60600
H1767       H  0.23397809  0.58144588  0.77457359     0.43400
H1768       H  0.24453665  0.43389013  0.70927426     0.43300
C1769       C  0.05868335  0.74318794  0.70430016    -0.05700
C1770       C  0.03377424  0.74307913  0.72533884    -0.33100
C1771       C  0.99628286  0.76238731  0.72507848     0.36100
C1772       C  0.98245811  0.78212597  0.70343749    -0.06100
C1773       C  0.00731593  0.78180967  0.68245474    -0.33000
C1774       C  0.04459725  0.76291549  0.68271262     0.36000
H1775       H  0.04342403  0.72810226  0.74213746     0.16400
O1776       O  0.97323780  0.76113705  0.74601276    -0.60500
H1777       H  0.99780687  0.79638329  0.66547932     0.16400
O1778       O  0.06675667  0.76350484  0.66138057    -0.60600
H1779       H  0.05857585  0.73917947  0.65218722     0.43400
H1780       H  0.95698438  0.73640347  0.74447272     0.43300
C1781       C  0.12891074  0.65182308  0.62234184    -0.05700
C1782       C  0.09399851  0.64726954  0.63620027    -0.33100
C1783       C  0.06403639  0.62194476  0.62832923     0.36100
C1784       C  0.06818142  0.60132657  0.60580328    -0.06100
C1785       C  0.10290954  0.60584518  0.59173196    -0.33000
C1786       C  0.13351334  0.63070537  0.60000212     0.36000
H1787       H  0.08976269  0.66321242  0.65342388     0.16400
O1788       O  0.02964420  0.61986464  0.64196966    -0.60500
H1789       H  0.10601313  0.59058533  0.57418229     0.16400
O1790       O  0.16729274  0.63460697  0.58596815    -0.60600
H1791       H  0.16187586  0.65715809  0.57438784     0.43400
H1792       H  0.03507929  0.60007634  0.65533572     0.43300
C1793       C  0.48858127  0.48851721  0.51031355    -0.05700
C1794       C  0.52396949  0.46896862  0.50341874    -0.33100
C1795       C  0.55769356  0.49064072  0.49629391     0.36100
C1796       C  0.55664938  0.53279844  0.49586501    -0.06100
C1797       C  0.52168357  0.55235838  0.50356772    -0.33000
C1798       C  0.48790213  0.53065532  0.51064519     0.36000
H1799       H  0.52570178  0.43650677  0.50348502     0.16400
O1800       O  0.59112964  0.47016530  0.48937161    -0.60500
H1801       H  0.51981028  0.58480476  0.50327913     0.16400
O1802       O  0.45429817  0.55105176  0.51734482    -0.60600
H1803       H  0.43949778  0.55544737  0.50169219     0.43400
H1804       H  0.60679559  0.46690520  0.50479324     0.43300
C1805       C  0.23384516  0.45248419  0.47492322    -0.05700
C1806       C  0.26835035  0.44442631  0.46140330    -0.33100
C1807       C  0.30543918  0.44388015  0.47313824     0.36100
C1808       C  0.30837543  0.45236599  0.49874731    -0.06100
C1809       C  0.27406884  0.46447578  0.51147496    -0.33000
C1810       C  0.23711363  0.46450056  0.49980090     0.36000
H1811       H  0.26630795  0.43562629  0.44216226     0.16400
O1812       O  0.33826992  0.43363656  0.45954378    -0.60500
H1813       H  0.27534459  0.47183508  0.53096946     0.16400
O1814       O  0.20402868  0.47434739  0.51327843    -0.60600
H1815       H  0.19933745  0.50314466  0.50961886     0.43400
H1816       H  0.33740292  0.40394604  0.45839875     0.43300
C1817       C  0.49010856  0.28973307  0.53554265    -0.05700
C1818       C  0.51618967  0.28272528  0.51556938    -0.33100
C1819       C  0.53956848  0.24747244  0.51446816     0.36100
C1820       C  0.53624439  0.21752710  0.53308497    -0.06100
C1821       C  0.51017039  0.22486584  0.55294571    -0.33000
C1822       C  0.48764963  0.26019509  0.55435440     0.36000
H1823       H  0.51926287  0.30513254  0.50105856     0.16400
O1824       O  0.56499251  0.24242919  0.49489773    -0.60500
H1825       H  0.50769355  0.20332554  0.56797068     0.16400
O1826       O  0.46229104  0.26496109  0.57401078    -0.60600
H1827       H  0.47925899  0.27418221  0.58787266     0.43400
H1828       H  0.58959566  0.25694972  0.49958018     0.43300
C1829       C  0.54841362  0.40827104  0.61508667    -0.05700
C1830       C  0.54576261  0.38761158  0.63755864    -0.33100
C1831       C  0.57794886  0.36584619  0.64635187     0.36100
C1832       C  0.61352048  0.36496998  0.63249568    -0.06100
C1833       C  0.61659449  0.38758601  0.61050422    -0.33000
C1834       C  0.58396478  0.40882248  0.60159134     0.36000
H1835       H  0.51785318  0.38636720  0.64759330     0.16400
O1836       O  0.57368135  0.34429277  0.66793459    -0.60500
H1837       H  0.64371301  0.38747164  0.59968806     0.16400
O1838       O  0.58627784  0.42801822  0.57908018    -0.60600
H1839       H  0.59309595  0.45624766  0.58298242     0.43400
H1840       H  0.57312260  0.36449092  0.68133382     0.43300
C1841       C  0.34617920  0.54151168  0.60435086    -0.05700
C1842       C  0.35410018  0.58248293  0.60077673    -0.33100
C1843       C  0.33600045  0.61173223  0.61586272     0.36100
C1844       C  0.30969696  0.60047465  0.63534176    -0.06100
C1845       C  0.30183035  0.55945725  0.63880044    -0.33000
C1846       C  0.31966154  0.53033709  0.62364540     0.36000
H1847       H  0.37538822  0.59185269  0.58681574     0.16400
O1848       O  0.34500588  0.65142130  0.61179036    -0.60500
H1849       H  0.28056068  0.54988544  0.65273060     0.16400
O1850       O  0.31024921  0.49066738  0.62748040    -0.60600
H1851       H  0.32538333  0.48244815  0.64241597     0.43400
H1852       H  0.32991621  0.65917774  0.59674416     0.43300
C1853       C  0.28609178  0.20990261  0.74260821    -0.05700
C1854       C  0.25622166  0.22543692  0.72727944    -0.33100
C1855       C  0.23671277  0.26103017  0.73344037     0.36100
C1856       C  0.24667919  0.28155882  0.75540431    -0.06100
C1857       C  0.27601173  0.26548282  0.77096174    -0.33000
C1858       C  0.29532788  0.22983055  0.76486612     0.36000
H1859       H  0.24905085  0.21089255  0.70995936     0.16400
O1860       O  0.20831423  0.27576755  0.71765507    -0.60500
H1861       H  0.28334398  0.28002353  0.78825877     0.16400
O1862       O  0.32335259  0.21475383  0.78080345    -0.60600
H1863       H  0.30914202  0.19428258  0.79090347     0.43400
H1864       H  0.22292292  0.29340345  0.70588116     0.43300
C1865       C  0.32401505  0.03328019  0.74946745    -0.05700
C1866       C  0.31710777  0.99713341  0.73706098    -0.33100
C1867       C  0.31742198  0.96065484  0.74989386     0.36100
C1868       C  0.32507008  0.95972103  0.77561719    -0.06100
C1869       C  0.32754403  0.99600266  0.78849578    -0.33000
C1870       C  0.32689321  0.03267043  0.77563910     0.36000
H1871       H  0.31385121  0.99676928  0.71710352     0.16400
O1872       O  0.31234484  0.92587735  0.73679919    -0.60500
H1873       H  0.33247130  0.99594551  0.80832316     0.16400
O1874       O  0.33113580  0.06751595  0.78876571    -0.60600
H1875       H  0.30378543  0.07793579  0.79080691     0.43400
H1876       H  0.28424268  0.91802486  0.73956146     0.43300
C1877       C  0.55907362  0.26191694  0.71156495    -0.05700
C1878       C  0.53345352  0.26184448  0.73224582    -0.33100
C1879       C  0.49742358  0.23964219  0.73228202     0.36100
C1880       C  0.48561098  0.21761745  0.71115808    -0.06100
C1881       C  0.51117984  0.21802304  0.69056392    -0.33000
C1882       C  0.54719094  0.23939068  0.69061307     0.36000
H1883       H  0.54149323  0.27874490  0.74856209     0.16400
O1884       O  0.47337835  0.24097793  0.75275555    -0.60500
H1885       H  0.50329387  0.20145444  0.67407665     0.16400
O1886       O  0.57042073  0.23808836  0.66973719    -0.60600
H1887       H  0.56068210  0.26016423  0.65895961     0.43400
H1888       H  0.48382003  0.22003173  0.76411682     0.43300
C1889       C  0.38571583  0.36145478  0.62865599    -0.05700
C1890       C  0.40083383  0.34636334  0.65084936    -0.33100
C1891       C  0.38589996  0.31059383  0.66041885     0.36100
C1892       C  0.35587413  0.28988841  0.64738326    -0.06100
C1893       C  0.33660261  0.30860423  0.62749799    -0.33000
C1894       C  0.35167026  0.34436993  0.61793121     0.36000
H1895       H  0.42665031  0.36002654  0.65936579     0.16400
O1896       O  0.40327320  0.29442013  0.68116885    -0.60500
H1897       H  0.31245122  0.29382025  0.61789817     0.16400
O1898       O  0.33473083  0.36117744  0.59720850    -0.60600
H1899       H  0.34235102  0.34352477  0.58328459     0.43400
H1900       H  0.38440168  0.29977914  0.69485220     0.43300
C1901       C  0.45920211  0.08049420  0.58788488    -0.05700
C1902       C  0.44397404  0.06287305  0.60953460    -0.33100
C1903       C  0.41544177  0.08275353  0.62334040     0.36100
C1904       C  0.40139843  0.12021676  0.61516632    -0.06100
C1905       C  0.41084973  0.13398736  0.59132568    -0.33000
C1906       C  0.43973780  0.11402902  0.57743076     0.36000
H1907       H  0.45711086  0.03582810  0.61714605     0.16400
O1908       O  0.40271056  0.06633430  0.64536135    -0.60500
H1909       H  0.39843173  0.16181290  0.58435588     0.16400
O1910       O  0.45047253  0.12874109  0.55455057    -0.60600
H1911       H  0.45981197  0.15655294  0.55727498     0.43400
H1912       H  0.42473824  0.07077152  0.65722938     0.43300
C1913       C  0.06254756  0.97903200  0.50559663    -0.05700
C1914       C  0.03133411  0.95952708  0.49300648    -0.33100
C1915       C  0.99785412  0.98055924  0.48468398     0.36100
C1916       C  0.99467962  0.02207431  0.48896810    -0.06100
C1917       C  0.02613855  0.04162229  0.50127023    -0.33000
C1918       C  0.05957225  0.02065946  0.50957671     0.36000
H1919       H  0.03233275  0.92746596  0.48991584     0.16400
O1920       O  0.96820959  0.95992771  0.47282877    -0.60500
H1921       H  0.02514755  0.07364232  0.50451923     0.16400
O1922       O  0.08923363  0.04140954  0.52137152    -0.60600
H1923       H  0.07867469  0.04741292  0.53809055     0.43400
H1924       H  0.97735411  0.95734446  0.45545023     0.43300
C1925       C  0.31184842  0.95497815  0.49887201    -0.05700
C1926       C  0.31001748  0.94214603  0.52382563    -0.33100
C1927       C  0.27354949  0.93883689  0.53627647     0.36100
C1928       C  0.23815089  0.94764100  0.52365196    -0.06100
C1929       C  0.24019446  0.96399079  0.49965872    -0.33000
C1930       C  0.27656400  0.96835462  0.48741501     0.36000
H1931       H  0.33661499  0.93240114  0.53335830     0.16400
O1932       O  0.27259891  0.92322439  0.55983317    -0.60500
H1933       H  0.21316725  0.97190706  0.48992184     0.16400
O1934       O  0.27664950  0.98301855  0.46362218    -0.60600
H1935       H  0.28219142  0.01213370  0.46522559     0.43400
H1936       H  0.27585452  0.94665782  0.57087819     0.43300
C1937       C  0.10683431  0.86396992  0.62238948    -0.05700
C1938       C  0.13681692  0.87483812  0.63928886    -0.33100
C1939       C  0.16505220  0.84690512  0.64701314     0.36100
C1940       C  0.16385954  0.80795654  0.63748448    -0.06100
C1941       C  0.13315688  0.79651553  0.62157662    -0.33000
C1942       C  0.10436672  0.82393410  0.61426899     0.36000
H1943       H  0.13933256  0.90536210  0.64589742     0.16400
O1944       O  0.19391093  0.85799402  0.66353982    -0.60500
H1945       H  0.13081845  0.76577275  0.61527147     0.16400
O1946       O  0.07385122  0.81117536  0.59940407    -0.60600
H1947       H  0.08640141  0.80416423  0.58340282     0.43400
H1948       H  0.21615097  0.86829478  0.65322396     0.43300
C1949       C  0.04104256  0.79026070  0.53520937    -0.05700
C1950       C  0.99921875  0.78767451  0.53483860    -0.33100
C1951       C  0.97920531  0.75023930  0.53443430     0.36100
C1952       C  0.00064040  0.71382297  0.53523707    -0.06100
C1953       C  0.04242571  0.71636417  0.53592084    -0.33000
C1954       C  0.06248152  0.75375766  0.53546237     0.36000
H1955       H  0.98177021  0.81490737  0.53485305     0.16400
O1956       O  0.93848988  0.74967937  0.53470548    -0.60500
H1957       H  0.05978894  0.68907884  0.53677665     0.16400
O1958       O  0.10315932  0.75413765  0.53662050    -0.60600
H1959       H  0.11218696  0.75105647  0.51925345     0.43400
H1960       H  0.93044563  0.75482749  0.51731386     0.43300
C1961       C  0.95282279  0.92297506  0.58610700    -0.05700
C1962       C  0.94038921  0.88720965  0.57465624    -0.33100
C1963       C  0.91151273  0.86310693  0.58582479     0.36100
C1964       C  0.89439084  0.87567210  0.60808337    -0.06100
C1965       C  0.90194317  0.91431506  0.61706327    -0.33000
C1966       C  0.93086359  0.93829530  0.60599573     0.36000
H1967       H  0.95638535  0.87531944  0.55893174     0.16400
O1968       O  0.90361525  0.82572987  0.57647962    -0.60500
H1969       H  0.88761653  0.92458791  0.63384693     0.16400
O1970       O  0.94043752  0.97450109  0.61638689    -0.60600
H1971       H  0.92143138  0.99391665  0.60909346     0.43400
H1972       H  0.92444887  0.80798182  0.58345837     0.43300
C1973       C  0.17515870  0.04039322  0.61215610    -0.05700
C1974       C  0.21469082  0.04193934  0.60398217    -0.33100
C1975       C  0.24461667  0.05977272  0.61841288     0.36100
C1976       C  0.23582810  0.07708403  0.64177579    -0.06100
C1977       C  0.19644055  0.07545574  0.65010223    -0.33000
C1978       C  0.16634828  0.05775580  0.63556946     0.36000
H1979       H  0.22280002  0.02840481  0.58651245     0.16400
O1980       O  0.28267398  0.06022610  0.60929702    -0.60500
H1981       H  0.18859468  0.08926342  0.66753056     0.16400
O1982       O  0.12826180  0.05782256  0.64457570    -0.60600
H1983       H  0.11580243  0.08209893  0.63728999     0.43400
H1984       H  0.29553044  0.03612603  0.61653168     0.43300
loop_ 
_geom_bond_atom_site_label_1 
_geom_bond_atom_site_label_2 
_geom_bond_distance 
_geom_bond_site_symmetry_2 
_ccdc_geom_bond_type 
O1           Ni7   1.949       .  S
O1           C22   1.276       .  A
O2          Ni25   1.937   1_545  S
O2           C11   1.285       .  A
O3           Ni7   1.908       .  S
O3          Ni25   1.916       .  S
O3          Ni19   1.930       .  S
O3           H26   0.966       .  S
C4           O21   1.263   1_655  A
C4           O13   1.280   1_655  A
C4         C1961   1.463       .  S
O5          Ni24   1.930   1_545  S
O5           C11   1.275       .  A
O6          Ni24   1.888       .  S
O6            C8   1.264       .  A
Ni7          O10   1.933       .  S
Ni7          O12   1.904       .  S
C8           O18   1.270       .  A
C8         C1937   1.471       .  S
O9          Ni25   1.918       .  S
O9           C15   1.268       .  A
O10          C15   1.271       .  A
C11        C1973   1.509       .  S
O12          C14   1.282       .  A
O13         Ni24   1.940       .  S
C14          O20   1.294       .  A
C14        C1913   1.491       .  S
C15        C1928   1.476       .  S
H16          O17   0.965       .  S
O17         Ni25   1.900       .  S
O17         Ni19   1.908       .  S
O17         Ni24   1.901       .  S
O18         Ni19   1.926       .  S
Ni19         O23   1.938       .  S
Ni19         O21   1.876       .  S
O20         Ni25   1.968       .  S
C22          O23   1.273       .  A
C22        C1949   1.516       .  S
O27         Ni33   1.974       .  S
O27          C48   1.282       .  A
O28         Ni51   1.971       .  S
O28          C37   1.291       .  A
O29         Ni33   1.897       .  S
O29         Ni51   1.925       .  S
O29         Ni45   1.898       .  S
O29          H52   0.966       .  S
C30          O47   1.274       .  A
C30          O39   1.276       .  A
C30        C1892   1.458       .  S
O31         Ni50   1.906       .  S
O31          C37   1.267       .  A
O32         Ni50   1.909       .  S
O32          C34   1.264       .  A
Ni33         O36   1.940       .  S
Ni33         O38   1.893       .  S
C34          O44   1.267       .  A
C34        C1904   1.459       .  S
O35         Ni51   1.906       .  S
O35          C41   1.279       .  A
O36          C41   1.280       .  A
C37        C1976   1.502       .  S
O38          C40   1.272       .  A
O39         Ni50   1.906       .  S
C40          O46   1.286       .  A
C40        C1853   1.476       .  S
C41        C1865   1.483       .  S
H42          O43   0.964       .  S
O43         Ni51   1.894       .  S
O43         Ni45   1.877       .  S
O43         Ni50   1.882       .  S
O44         Ni45   1.903       .  S
Ni45         O49   1.907       .  S
Ni45         O47   1.900       .  S
O46         Ni51   1.957       .  S
C48          O49   1.270       .  A
C48        C1880   1.510       .  S
O53         Ni59   1.907       .  S
O53          C74   1.264       .  A
O54         Ni77   1.909       .  S
O54          C63   1.268       .  A
O55         Ni59   1.903       .  S
O55         Ni77   1.891       .  S
O55         Ni71   1.898       .  S
O55          H78   0.965       .  S
C56          O73   1.274       .  A
C56          O65   1.278       .  A
C56        C1808   1.486       .  S
O57         Ni76   1.969       .  S
O57          C63   1.280       .  A
O58         Ni76   1.884       .  S
O58          C60   1.270       .  A
Ni59         O62   1.909       .  S
Ni59         O64   1.896       .  S
C60          O70   1.286       .  A
C60        C1793   1.480       .  S
O61         Ni77   1.895       .  S
O61          C67   1.270       .  A
O62          C67   1.273       .  A
C63        C1817   1.506       .  S
O64          C66   1.262       .  A
O65         Ni76   1.942       .  S
C66          O72   1.264       .  A
C66        C1889   1.445       .  S
C67        C1829   1.441       .  S
H68          O69   0.966       .  S
O69         Ni77   1.904       .  S
O69         Ni71   1.928       .  S
O69         Ni76   1.905       .  S
O70         Ni71   1.955       .  S
Ni71         O75   1.969       .  S
Ni71         O73   1.899       .  S
O72         Ni77   1.892       .  S
C74          O75   1.287       .  A
C74        C1841   1.499       .  S
O79         Ni85   1.912       .  S
O79         C100   1.271       .  A
O80        Ni103   1.913       .  S
O80          C89   1.268       .  A
O81         Ni85   1.917       .  S
O81        Ni103   1.899       .  S
O81         Ni97   1.914       .  S
O81         H104   0.965       .  S
C82          O99   1.272       .  A
C82          O91   1.272       .  A
C82        C1757   1.497       .  S
O83        Ni102   1.962       .  S
O83          C89   1.278       .  A
O84        Ni102   1.895       .  S
O84          C86   1.280       .  A
Ni85         O88   1.937       .  S
Ni85         O90   1.889       .  S
C86          O96   1.298       .  A
C86        C1745   1.489       .  S
O87        Ni103   1.885       .  S
O87          C93   1.258       .  A
O88          C93   1.273       .  A
C89        C1769   1.514       .  S
O90          C92   1.265       .  A
O91        Ni102   1.938       .  S
C92          O98   1.273       .  A
C92        C1781   1.460       .  S
C93        C1940   1.451       .  S
H94          O95   0.965       .  S
O95        Ni103   1.924       .  S
O95         Ni97   1.916       .  S
O95        Ni102   1.908       .  S
O96         Ni97   1.978       .  S
Ni97        O101   1.951       .  S
Ni97         O99   1.926       .  S
O98        Ni103   1.928       .  S
C100        O101   1.289       .  A
C100       C1844   1.503       .  S
O105       Ni111   1.906       .  S
O105        C126   1.270   1_545  A
O106       Ni129   1.917       .  S
O106        C115   1.268       .  A
O107       Ni111   1.899       .  S
O107       Ni129   1.903       .  S
O107       Ni123   1.911       .  S
O107        H130   0.965       .  S
C108        O125   1.276       .  A
C108        O117   1.267       .  A
C108       C1709   1.497       .  S
O109       Ni128   1.951       .  S
O109        C115   1.274       .  A
O110       Ni128   1.896       .  S
O110        C112   1.282       .  A
Ni111       O114   1.928       .  S
Ni111       O116   1.892       .  S
C112        O122   1.295       .  A
C112       C1697   1.484       .  S
O113       Ni129   1.889       .  S
O113        C119   1.263       .  A
O114        C119   1.276       .  A
C115       C1820   1.510       .  S
O116        C118   1.264       .  A
O117       Ni128   1.919       .  S
C118        O124   1.268       .  A
C118       C1721   1.470       .  S
C119       C1901   1.468       .  S
H120        O121   0.966       .  S
O121       Ni129   1.936       .  S
O121       Ni123   1.926       .  S
O121       Ni128   1.909       .  S
O122       Ni123   1.965       .  S
Ni123       O127   1.961       .  S
Ni123       O125   1.937       .  S
O124       Ni129   1.921       .  S
C126        O127   1.292   1_565  A
C126       C1736   1.510       .  S
O131       Ni137   1.907       .  S
O131        C152   1.266       .  A
O132       Ni155   1.908       .  S
O132        C141   1.269       .  A
O133       Ni137   1.895       .  S
O133       Ni155   1.886       .  S
O133       Ni149   1.894       .  S
O133        H156   0.965       .  S
C134        O151   1.273       .  A
C134        O143   1.282       .  A
C134       C1673   1.482       .  S
O135       Ni154   1.978       .  S
O135        C141   1.283       .  A
O136       Ni154   1.893       .  S
O136        C138   1.273       .  A
Ni137       O140   1.902       .  S
Ni137       O142   1.906       .  S
C138        O148   1.291       .  A
C138       C1661   1.496       .  S
O139       Ni155   1.891       .  S
O139        C145   1.271       .  A
O140        C145   1.272       .  A
C141       C1772   1.513       .  S
O142        C144   1.263       .  A
O143       Ni154   1.947       .  S
C144        O150   1.265       .  A
C144       C1964   1.451       .  S
C145       C1685   1.433       .  S
H146        O147   0.967       .  S
O147       Ni155   1.893       .  S
O147       Ni149   1.920       .  S
O147       Ni154   1.893       .  S
O148       Ni149   1.974       .  S
Ni149       O153   1.964       .  S
Ni149       O151   1.897       .  S
O150       Ni155   1.897       .  S
C152        O153   1.290       .  A
C152       C1733   1.501       .  S
O157       Ni163   1.955       .  S
O157        C178   1.277       .  A
O158       Ni181   1.967       .  S
O158        C167   1.294       .  A
O159       Ni163   1.899       .  S
O159       Ni181   1.915       .  S
O159       Ni175   1.934       .  S
O159        H182   0.960       .  S
C160        O177   1.263       .  A
C160        O169   1.270       .  A
C160       C1784   1.455       .  S
O161       Ni180   1.896       .  S
O161        C167   1.267       .  A
O162       Ni180   1.890       .  S
O162        C164   1.265       .  A
Ni163       O166   1.926       .  S
Ni163       O168   1.890       .  S
C164        O174   1.270       .  A
C164       C1688   1.453       .  S
O165       Ni181   1.932       .  S
O165        C171   1.274       .  A
O166        C171   1.268       .  A
C167       C1649   1.513       .  S
O168        C170   1.281       .  A
O169       Ni180   1.915   1_455  S
C170        O176   1.300       .  A
C170       C1628   1.490       .  S
C171       C1637   1.492       .  S
H172        O173   0.966       .  S
O173       Ni181   1.915       .  S
O173       Ni175   1.910       .  S
O173       Ni180   1.908       .  S
O174       Ni175   1.920       .  S
Ni175       O179   1.933       .  S
Ni175       O177   1.889   1_655  S
O176       Ni181   1.977       .  S
C178        O179   1.271       .  A
C178       C1952   1.513   1_655  S
O183       Ni189   1.963       .  S
O183        C204   1.278       .  A
O184       Ni207   1.972       .  S
O184        C193   1.295       .  A
O185       Ni189   1.904       .  S
O185       Ni207   1.921       .  S
O185       Ni201   1.932       .  S
O185        H208   0.964       .  S
C186        O203   1.261       .  A
C186        O195   1.272       .  A
C186       C1724   1.451       .  S
O187       Ni206   1.895       .  S
O187        C193   1.268       .  A
O188       Ni206   1.892       .  S
O188        C190   1.265       .  A
Ni189       O192   1.932       .  S
Ni189       O194   1.882       .  S
C190        O200   1.270       .  A
C190       C1832   1.465       .  S
O191       Ni207   1.922       .  S
O191        C197   1.273       .  A
O192        C197   1.270       .  A
C193       C1652   1.504       .  S
O194        C196   1.278       .  A
O195       Ni206   1.925       .  S
C196        O202   1.300       .  A
C196       C1601   1.485       .  S
C197       C1613   1.491       .  S
H198        O199   0.966       .  S
O199       Ni207   1.903       .  S
O199       Ni201   1.892       .  S
O199       Ni206   1.905       .  S
O200       Ni201   1.928       .  S
Ni201       O205   1.903       .  S
Ni201       O203   1.886       .  S
O202       Ni207   1.976       .  S
C204        O205   1.264       .  A
C204       C1877   1.512       .  S
O209       Ni215   1.944       .  S
O209        C230   1.273       .  A
O210       Ni233   1.963       .  S
O210        C219   1.291       .  A
O211       Ni215   1.904       .  S
O211       Ni233   1.923       .  S
O211       Ni227   1.932       .  S
O211        H234   0.966       .  S
C212        O229   1.261       .  A
C212        O221   1.273       .  A
C212       C1577   1.453       .  S
O213       Ni232   1.902       .  S
O213        C219   1.269       .  A
O214       Ni232   1.887       .  S
O214        C216   1.263       .  A
Ni215       O218   1.923       .  S
Ni215       O220   1.890       .  S
C216        O226   1.273       .  A
C216       C1568   1.460       .  S
O217       Ni233   1.925       .  S
O217        C223   1.273       .  A
O218        C223   1.267       .  A
C219       C1589   1.501       .  S
O220        C222   1.280       .  A
O221       Ni232   1.928       .  S
C222        O228   1.297       .  A
C222       C1529   1.484       .  S
C223       C1541   1.488       .  S
H224        O225   0.966       .  S
O225       Ni233   1.908       .  S
O225       Ni227   1.901       .  S
O225       Ni232   1.908       .  S
O226       Ni227   1.925       .  S
Ni227       O231   1.934       .  S
Ni227       O229   1.881       .  S
O228       Ni233   1.972       .  S
C230        O231   1.270       .  A
C230       C1556   1.501       .  S
O235       Ni241   1.939       .  S
O235        C256   1.272       .  A
O236       Ni259   1.944       .  S
O236        C245   1.289       .  A
O237       Ni241   1.901       .  S
O237       Ni259   1.915       .  S
O237       Ni253   1.928       .  S
O237        H260   0.964       .  S
C238        O255   1.261       .  A
C238        O247   1.282       .  A
C238       C1505   1.465       .  S
O239       Ni258   1.923       .  S
O239        C245   1.274       .  A
O240       Ni258   1.890       .  S
O240        C242   1.261       .  A
Ni241       O244   1.917       .  S
Ni241       O246   1.908       .  S
C242        O252   1.269       .  A
C242       C1517   1.471       .  S
O243       Ni259   1.924       .  S
O243        C249   1.273       .  A
O244        C249   1.266       .  A
C245       C1592   1.511       .  S
O246        C248   1.284       .  A
O247       Ni258   1.943       .  S
C248        O254   1.296       .  A
C248       C1469   1.487       .  S
C249       C1481   1.476       .  S
H250        O251   0.966       .  S
O251       Ni259   1.901       .  S
O251       Ni253   1.908       .  S
O251       Ni258   1.902       .  S
O252       Ni253   1.922       .  S
Ni253       O257   1.941       .  S
Ni253       O255   1.870       .  S
O254       Ni259   1.966       .  S
C256        O257   1.273       .  A
C256       C1496   1.506       .  S
O261       Ni267   1.909       .  S
O261        C282   1.270   1_565  A
O262       Ni285   1.935   1_455  S
O262        C271   1.271   1_455  A
O263       Ni267   1.901       .  S
O263       Ni285   1.913       .  S
O263       Ni279   1.905       .  S
O263        H286   0.965       .  S
C264        O281   1.273       .  A
C264        O273   1.269       .  A
C264       C1424   1.483       .  S
O265       Ni284   1.958       .  S
O265        C271   1.277       .  A
O266       Ni284   1.903       .  S
O266        C268   1.283       .  A
Ni267       O270   1.924   1_655  S
Ni267       O272   1.883       .  S
C268        O278   1.295       .  A
C268       C1409   1.490       .  S
O269       Ni285   1.874   1_455  S
O269        C275   1.261       .  A
O270        C275   1.273       .  A
C271       C1460   1.516   1_655  S
O272        C274   1.264       .  A
O273       Ni284   1.928       .  S
C274        O280   1.270       .  A
C274       C1580   1.465       .  S
C275       C1436   1.451       .  S
H276        O277   0.965       .  S
O277       Ni285   1.927       .  S
O277       Ni279   1.924       .  S
O277       Ni284   1.907       .  S
O278       Ni279   1.966       .  S
Ni279       O283   1.963   1_565  S
Ni279       O281   1.924       .  S
O280       Ni285   1.925       .  S
C282        O283   1.291       .  A
C282       C1445   1.514       .  S
O287       Ni293   1.900       .  S
O287        C308   1.269       .  A
O288       Ni311   1.917       .  S
O288        C297   1.269       .  A
O289       Ni293   1.915       .  S
O289       Ni311   1.904       .  S
O289       Ni305   1.919       .  S
O289        H312   0.966       .  S
C290        O307   1.274       .  A
C290        O299   1.270       .  A
C290       C1373   1.493       .  S
O291       Ni310   1.959       .  S
O291        C297   1.277       .  A
O292       Ni310   1.884       .  S
O292        C294   1.279       .  A
Ni293       O296   1.928       .  S
Ni293       O298   1.883       .  S
C294        O304   1.298       .  A
C294       C1361   1.488       .  S
O295       Ni311   1.888       .  S
O295        C301   1.260       .  A
O296        C301   1.271       .  A
C297       C1385   1.511       .  S
O298        C300   1.263       .  A
O299       Ni310   1.930       .  S
C300        O306   1.272       .  A
C300       C1400   1.458       .  S
C301       C1520   1.456       .  S
H302        O303   0.964       .  S
O303       Ni311   1.927       .  S
O303       Ni305   1.921       .  S
O303       Ni310   1.910       .  S
O304       Ni305   1.976       .  S
Ni305       O309   1.968       .  S
Ni305       O307   1.930       .  S
O306       Ni311   1.926       .  S
C308        O309   1.293       .  A
C308       C1448   1.512       .  S
O313       Ni319   1.963       .  S
O313        C334   1.279       .  A
O314       Ni337   1.961       .  S
O314        C323   1.289       .  A
O315       Ni319   1.915       .  S
O315       Ni337   1.921       .  S
O315       Ni331   1.919       .  S
O315        H338   0.966       .  S
C316        O333   1.258       .  A
C316        O325   1.266       .  A
C316       C1337   1.459       .  S
O317       Ni336   1.885       .  S
O317        C323   1.262       .  A
O318       Ni336   1.873       .  S
O318        C320   1.261       .  A
Ni319       O322   1.936       .  S
Ni319       O324   1.905       .  S
C320        O330   1.274       .  A
C320       C1433   1.435       .  S
O321       Ni337   1.924       .  S
O321        C327   1.276       .  A
O322        C327   1.272       .  A
C323       C1352   1.487       .  S
O324        C326   1.281       .  A
O325       Ni336   1.912       .  S
C326        O332   1.290       .  A
C326       C1316   1.485       .  S
C327       C1328   1.491       .  S
H328        O329   0.964       .  S
O329       Ni337   1.924       .  S
O329       Ni331   1.905       .  S
O329       Ni336   1.912       .  S
O330       Ni331   1.931       .  S
Ni331       O335   1.914       .  S
Ni331       O333   1.883       .  S
O332       Ni337   1.956       .  S
C334        O335   1.267       .  A
C334       C1553   1.516       .  S
O339       Ni345   1.945       .  S
O339        C360   1.276       .  A
O340       Ni363   1.963   1_565  S
O340        C349   1.293       .  A
O341       Ni345   1.897       .  S
O341       Ni363   1.915       .  S
O341       Ni357   1.933       .  S
O341        H364   0.966       .  S
C342        O359   1.264       .  A
C342        O351   1.271       .  A
C342       C1397   1.457       .  S
O343       Ni362   1.892   1_565  S
O343        C349   1.266       .  A
O344       Ni362   1.894       .  S
O344        C346   1.265       .  A
Ni345       O348   1.920       .  S
Ni345       O350   1.891       .  S
C346        O356   1.266       .  A
C346       C1304   1.452       .  S
O347       Ni363   1.939       .  S
O347        C353   1.275       .  A
O348        C353   1.265       .  A
C349       C1349   1.500       .  S
O350        C352   1.281       .  A
O351       Ni362   1.917       .  S
C352        O358   1.300       .  A
C352       C1277   1.487       .  S
C353       C1289   1.495       .  S
H354        O355   0.966       .  S
O355       Ni363   1.915       .  S
O355       Ni357   1.910       .  S
O355       Ni362   1.902       .  S
O356       Ni357   1.911       .  S
Ni357       O361   1.934       .  S
Ni357       O359   1.889       .  S
O358       Ni363   1.979       .  S
C360        O361   1.272       .  A
C360       C1493   1.513       .  S
O365       Ni371   1.906       .  S
O365        C386   1.267       .  A
O366       Ni389   1.903       .  S
O366        C375   1.269       .  A
O367       Ni371   1.914       .  S
O367       Ni389   1.900       .  S
O367       Ni383   1.916       .  S
O367        H390   0.964       .  S
C368        O385   1.276       .  A
C368        O377   1.284       .  A
C368       C1253   1.475       .  S
O369       Ni388   1.981       .  S
O369        C375   1.285       .  A
O370       Ni388   1.894       .  S
O370        C372   1.271       .  A
Ni371       O374   1.916       .  S
Ni371       O376   1.905       .  S
C372        O382   1.283       .  A
C372       C1241   1.477       .  S
O373       Ni389   1.868       .  S
O373        C379   1.262       .  A
O374        C379   1.270       .  A
C375       C1388   1.515       .  S
O376        C378   1.267       .  A
O377       Ni388   1.947       .  S
C378        O384   1.267       .  A
C378       C1508   1.448       .  S
C379       C1301   1.450       .  S
H380        O381   0.966       .  S
O381       Ni389   1.875       .  S
O381       Ni383   1.907       .  S
O381       Ni388   1.888       .  S
O382       Ni383   1.947       .  S
Ni383       O387   1.946       .  S
Ni383       O385   1.897       .  S
O384       Ni389   1.889       .  S
C386        O387   1.285       .  A
C386       C1268   1.502       .  S
O391       Ni397   1.892       .  S
O391        C412   1.266       .  A
O392       Ni415   1.934       .  S
O392        C401   1.271       .  A
O393       Ni397   1.902       .  S
O393       Ni415   1.907       .  S
O393       Ni409   1.912       .  S
O393        H416   0.965       .  S
C394        O411   1.273       .  A
C394        O403   1.272       .  A
C394       C1229   1.497       .  S
O395       Ni414   1.958       .  S
O395        C401   1.278       .  A
O396       Ni414   1.897       .  S
O396        C398   1.281       .  A
Ni397       O400   1.906       .  S
Ni397       O402   1.885       .  S
C398        O408   1.293       .  A
C398       C1220   1.483       .  S
O399       Ni415   1.894       .  S
O399        C405   1.265       .  A
O400        C405   1.268       .  A
C401       C1457   1.515       .  S
O402        C404   1.264       .  A
O403       Ni414   1.938       .  S
C404        O410   1.272       .  A
C404       C1340   1.453       .  S
C405       C1565   1.453   1_455  S
H406        O407   0.965       .  S
O407       Ni415   1.939       .  S
O407       Ni409   1.922       .  S
O407       Ni414   1.908       .  S
O408       Ni409   1.960       .  S
Ni409       O413   1.961       .  S
Ni409       O411   1.927       .  S
O410       Ni415   1.921       .  S
C412        O413   1.289       .  A
C412       C1265   1.507       .  S
O417       Ni423   1.944       .  S
O417        C438   1.274       .  A
O418       Ni441   1.953       .  S
O418        C427   1.289       .  A
O419       Ni423   1.899       .  S
O419       Ni441   1.918       .  S
O419       Ni435   1.931       .  S
O419        H442   0.964       .  S
C420        O437   1.262       .  A
C420        O429   1.275       .  A
C420       C1193   1.448       .  S
O421       Ni440   1.916       .  S
O421        C427   1.272       .  A
O422       Ni440   1.890       .  S
O422        C424   1.265       .  A
Ni423       O426   1.921       .  S
Ni423       O428   1.894       .  S
C424        O434   1.270       .  A
C424       C1172   1.462       .  S
O425       Ni441   1.919       .  S
O425        C431   1.268       .  A
O426        C431   1.267       .  A
C427       C1208   1.515       .  S
O428        C430   1.281       .  A
O429       Ni440   1.927       .  S
C430        O436   1.299       .  A
C430       C1748   1.488       .  S
C431       C1868   1.478       .  S
H432        O433   0.965       .  S
O433       Ni441   1.902       .  S
O433       Ni435   1.908       .  S
O433       Ni440   1.904       .  S
O434       Ni435   1.925       .  S
Ni435       O439   1.943       .  S
Ni435       O437   1.884       .  S
O436       Ni441   1.979       .  S
C438        O439   1.274       .  A
C438       C1181   1.516       .  S
O443       Ni449   1.950       .  S
O443        C464   1.275       .  A
O444       Ni467   1.957       .  S
O444        C453   1.289   1_545  A
O445       Ni449   1.911       .  S
O445       Ni467   1.924       .  S
O445       Ni461   1.939       .  S
O445        H468   0.966       .  S
C446        O463   1.266       .  A
C446        O455   1.277       .  A
C446       C1148   1.470   1_455  S
O447       Ni466   1.915       .  S
O447        C453   1.270   1_545  A
O448       Ni466   1.885       .  S
O448        C450   1.262       .  A
Ni449       O452   1.934       .  S
Ni449       O454   1.906       .  S
C450        O460   1.269       .  A
C450       C1160   1.453       .  S
O451       Ni467   1.925       .  S
O451        C457   1.273       .  A
O452        C457   1.271       .  A
C453       C1205   1.504       .  S
O454        C456   1.283       .  A
O455       Ni466   1.928       .  S
C456        O462   1.292       .  A
C456       C1412   1.488   1_556  S
C457       C1292   1.490       .  S
H458        O459   0.965       .  S
O459       Ni467   1.901       .  S
O459       Ni461   1.909       .  S
O459       Ni466   1.895       .  S
O460       Ni461   1.921       .  S
Ni461       O465   1.940       .  S
Ni461       O463   1.889       .  S
O462       Ni467   1.960       .  S
C464        O465   1.274       .  A
C464       C1133   1.517       .  S
O469       Ni475   1.952       .  S
O469        C490   1.275       .  A
O470       Ni493   1.962       .  S
O470        C479   1.293       .  A
O471       Ni475   1.898       .  S
O471       Ni493   1.918       .  S
O471       Ni487   1.931       .  S
O471        H494   0.964       .  S
C472        O489   1.260       .  A
C472        O481   1.274       .  A
C472       C1109   1.446       .  S
O473       Ni492   1.909       .  S
O473        C479   1.272       .  A
O474       Ni492   1.890       .  S
O474        C476   1.265       .  A
Ni475       O478   1.922       .  S
Ni475       O480   1.903       .  S
C476        O486   1.270       .  A
C476       C1097   1.467       .  S
O477       Ni493   1.933       .  S
O477        C483   1.273       .  A
O478        C483   1.269       .  A
C479       C1121   1.516       .  S
O480        C482   1.284       .  A
O481       Ni492   1.931       .  S
C482        O488   1.300       .  A
C482       C1664   1.494       .  S
C483       C1616   1.487       .  S
H484        O485   0.966       .  S
O485       Ni493   1.909       .  S
O485       Ni487   1.905       .  S
O485       Ni492   1.904       .  S
O486       Ni487   1.926       .  S
Ni487       O491   1.933       .  S
Ni487       O489   1.875       .  S
O488       Ni493   1.977       .  S
C490        O491   1.270       .  A
C490       C1184   1.511       .  S
O495       Ni501   1.943       .  S
O495        C516   1.273       .  A
O496       Ni519   1.962       .  S
O496        C505   1.292       .  A
O497       Ni501   1.898       .  S
O497       Ni519   1.923       .  S
O497       Ni513   1.936       .  S
O497        H520   0.966       .  S
C498        O515   1.264       .  A
C498        O507   1.279       .  A
C498       C1085   1.463       .  S
O499       Ni518   1.914       .  S
O499        C505   1.271       .  A
O500       Ni518   1.887       .  S
O500        C502   1.262       .  A
Ni501       O504   1.915       .  S
Ni501       O506   1.895       .  S
C502        O512   1.268       .  A
C502       C1076   1.456       .  S
O503       Ni519   1.928       .  S
O503        C509   1.274       .  A
O504        C509   1.265       .  A
C505       C1124   1.505       .  S
O506        C508   1.283       .  A
O507       Ni518   1.931   1_455  S
C508        O514   1.296       .  A
C508       C1217   1.483       .  S
C509       C1484   1.485       .  S
H510        O511   0.965       .  S
O511       Ni519   1.895       .  S
O511       Ni513   1.904       .  S
O511       Ni518   1.888       .  S
O512       Ni513   1.919       .  S
Ni513       O517   1.940       .  S
Ni513       O515   1.880   1_655  S
O514       Ni519   1.967       .  S
C516        O517   1.272       .  A
C516       C1136   1.510   1_655  S
O521       Ni527   1.905       .  S
O521        C542   1.267       .  A
O522       Ni545   1.896       .  S
O522        C531   1.267       .  A
O523       Ni527   1.896       .  S
O523       Ni545   1.892       .  S
O523       Ni539   1.908       .  S
O523        H546   0.965       .  S
C524        O541   1.278       .  A
C524        O533   1.286       .  A
C524       C1676   1.478       .  S
O525       Ni544   1.986       .  S
O525        C531   1.284       .  A
O526       Ni544   1.886       .  S
O526        C528   1.267       .  A
Ni527       O530   1.913       .  S
Ni527       O532   1.906       .  S
C528        O538   1.284       .  A
C528       C1604   1.484       .  S
O529       Ni545   1.890       .  S
O529        C535   1.266       .  A
O530        C535   1.272       .  A
C531       C1052   1.518       .  S
O532        C534   1.268       .  A
O533       Ni544   1.950       .  S
C534        O540   1.268       .  A
C534       C1145   1.457       .  S
C535       C1073   1.454       .  S
H536        O537   0.966       .  S
O537       Ni545   1.878       .  S
O537       Ni539   1.913       .  S
O537       Ni544   1.889       .  S
O538       Ni539   1.952       .  S
Ni539       O543   1.961       .  S
Ni539       O541   1.902       .  S
O540       Ni545   1.899       .  S
C542        O543   1.289       .  A
C542       C1061   1.504       .  S
O547       Ni553   1.895   1_545  S
O547        C568   1.267       .  A
O548       Ni571   1.931       .  S
O548        C557   1.271       .  A
O549       Ni553   1.903       .  S
O549       Ni571   1.906       .  S
O549       Ni565   1.913       .  S
O549        H572   0.966       .  S
C550        O567   1.272       .  A
C550        O559   1.270       .  A
C550       C1421   1.490       .  S
O551       Ni570   1.949       .  S
O551        C557   1.275       .  A
O552       Ni570   1.902       .  S
O552        C554   1.281       .  A
Ni553       O556   1.919       .  S
Ni553       O558   1.876       .  S
C554        O564   1.296       .  A
C554       C1280   1.486       .  S
O555       Ni571   1.883       .  S
O555        C561   1.259       .  A
O556        C561   1.270       .  A
C557       C1037   1.506       .  S
O558        C560   1.261       .  A
O559       Ni570   1.927       .  S
C560        O566   1.274       .  A
C560       C1112   1.441       .  S
C561       C1169   1.448       .  S
H562        O563   0.966       .  S
O563       Ni571   1.929       .  S
O563       Ni565   1.920       .  S
O563       Ni570   1.906       .  S
O564       Ni565   1.967       .  S
Ni565       O569   1.958       .  S
Ni565       O567   1.923       .  S
O566       Ni571   1.937       .  S
C568        O569   1.290   1_545  A
C568       C1064   1.510       .  S
O573       Ni579   1.904       .  S
O573        C594   1.266       .  A
O574       Ni597   1.887       .  S
O574        C583   1.264       .  A
O575       Ni579   1.899       .  S
O575       Ni597   1.891       .  S
O575       Ni591   1.916       .  S
O575        H598   0.965       .  S
C576        O593   1.283       .  A
C576        O585   1.288       .  A
C576       C1760   1.492       .  S
O577       Ni596   1.997       .  S
O577        C583   1.287       .  A
O578       Ni596   1.899       .  S
O578        C580   1.271       .  A
Ni579       O582   1.916       .  S
Ni579       O584   1.906       .  S
C580        O590   1.283       .  A
C580       C1856   1.479       .  S
O581       Ni597   1.890       .  S
O581        C587   1.266       .  A
O582        C587   1.273       .  A
C583       C1049   1.517       .  S
O584        C586   1.266       .  A
O585       Ni596   1.960       .  S
C586        O592   1.264       .  A
C586       C1088   1.454       .  S
C587       C1157   1.461       .  S
H588        O589   0.966       .  S
O589       Ni597   1.878       .  S
O589       Ni591   1.913       .  S
O589       Ni596   1.892       .  S
O590       Ni591   1.947       .  S
Ni591       O595   1.969       .  S
Ni591       O593   1.917       .  S
O592       Ni597   1.889       .  S
C594        O595   1.290       .  A
C594       C1028   1.502       .  S
O599       Ni605   1.905       .  S
O599        C620   1.270       .  A
O600       Ni623   1.931       .  S
O600        C609   1.272       .  A
O601       Ni605   1.908       .  S
O601       Ni623   1.905       .  S
O601       Ni617   1.913       .  S
O601        H624   0.966       .  S
C602        O619   1.274       .  A
C602        O611   1.269       .  A
C602       C1232   1.494       .  S
O603       Ni622   1.951       .  S
O603        C609   1.277       .  A
O604       Ni622   1.889       .  S
O604        C606   1.281       .  A
Ni605       O608   1.927       .  S
Ni605       O610   1.894       .  S
C606        O616   1.297       .  A
C606       C1472   1.488       .  S
O607       Ni623   1.887       .  S
O607        C613   1.261       .  A
O608        C613   1.274       .  A
C609       C1040   1.514       .  S
O610        C612   1.266       .  A
O611       Ni622   1.929       .  S
C612        O618   1.270       .  A
C612       C1196   1.465       .  S
C613       C1100   1.454       .  S
H614        O615   0.964       .  S
O615       Ni623   1.934       .  S
O615       Ni617   1.917       .  S
O615       Ni622   1.902       .  S
O616       Ni617   1.973       .  S
Ni617       O621   1.954       .  S
Ni617       O619   1.935       .  S
O618       Ni623   1.925       .  S
C620        O621   1.291       .  A
C620       C1025   1.508       .  S
O625       Ni631   1.925       .  S
O625        C646   1.275       .  A
O626       Ni649   1.935       .  S
O626        C635   1.273       .  A
O627       Ni631   1.900       .  S
O627       Ni649   1.901       .  S
O627       Ni643   1.894       .  S
O627        H650   0.966       .  S
C628        O645   1.267       .  A
C628        O637   1.268       .  A
C628       C1805   1.472       .  S
O629       Ni648   1.942       .  S
O629        C635   1.274       .  A
O630       Ni648   1.899       .  S
O630        C632   1.280       .  A
Ni631       O634   1.937       .  S
Ni631       O636   1.886       .  S
C632        O642   1.296       .  A
C632       C1625   1.489       .  S
O633       Ni649   1.870       .  S
O633        C639   1.262   1_455  A
O634        C639   1.278   1_455  A
C635        C980   1.506       .  S
O636        C638   1.264       .  A
O637       Ni648   1.926       .  S
C638        O644   1.271       .  A
C638        C989   1.468       .  S
C639       C1001   1.451       .  S
H640        O641   0.965       .  S
O641       Ni649   1.927       .  S
O641       Ni643   1.911       .  S
O641       Ni648   1.905       .  S
O642       Ni643   1.969       .  S
Ni643       O647   1.932       .  S
Ni643       O645   1.915       .  S
O644       Ni649   1.928       .  S
C646        O647   1.284       .  A
C646       C1016   1.498       .  S
O651       Ni657   1.905       .  S
O651        C672   1.266       .  A
O652       Ni675   1.900       .  S
O652        C661   1.269       .  A
O653       Ni657   1.888       .  S
O653       Ni675   1.883       .  S
O653       Ni669   1.891       .  S
O653        H676   0.964       .  S
C654        O671   1.272       .  A
C654        O663   1.283       .  A
C654       C1256   1.478       .  S
O655       Ni674   1.984       .  S
O655        C661   1.285       .  A
O656       Ni674   1.898       .  S
O656        C658   1.274       .  A
Ni657       O660   1.903       .  S
Ni657       O662   1.908       .  S
C658        O668   1.284       .  A
C658       C1313   1.485       .  S
O659       Ni675   1.899       .  S
O659        C665   1.274       .  A
O660        C665   1.275       .  A
C661        C941   1.512       .  S
O662        C664   1.264       .  A
O663       Ni674   1.953       .  S
C664        O670   1.264       .  A
C664        C965   1.459       .  S
C665        C953   1.457       .  S
H666        O667   0.965       .  S
O667       Ni675   1.900       .  S
O667       Ni669   1.921       .  S
O667       Ni674   1.898       .  S
O668       Ni669   1.952       .  S
Ni669       O673   1.957       .  S
Ni669       O671   1.888       .  S
O670       Ni675   1.894       .  S
C672        O673   1.286       .  A
C672       C1013   1.501       .  S
O677       Ni683   1.906       .  S
O677        C698   1.270   1_545  A
O678       Ni701   1.931   1_455  S
O678        C687   1.271   1_455  A
O679       Ni683   1.903       .  S
O679       Ni701   1.906       .  S
O679       Ni695   1.908       .  S
O679        H702   0.966       .  S
C680        O697   1.274       .  A
C680        O689   1.267       .  A
C680       C1712   1.484       .  S
O681       Ni700   1.949       .  S
O681        C687   1.276       .  A
O682       Ni700   1.896       .  S
O682        C684   1.282       .  A
Ni683       O686   1.922   1_655  S
Ni683       O688   1.890       .  S
C684        O694   1.297       .  A
C684       C1916   1.491       .  S
O685       Ni701   1.881   1_455  S
O685        C691   1.259       .  A
O686        C691   1.273       .  A
C687        C977   1.510   1_655  S
O688        C690   1.266       .  A
O689       Ni700   1.928       .  S
C690        O696   1.271       .  A
C690        C908   1.466       .  S
C691        C917   1.449       .  S
H692        O693   0.964       .  S
O693       Ni701   1.929       .  S
O693       Ni695   1.915       .  S
O693       Ni700   1.904       .  S
O694       Ni695   1.973       .  S
Ni695       O699   1.958   1_545  S
Ni695       O697   1.928       .  S
O696       Ni701   1.930       .  S
C698        O699   1.291       .  A
C698        C929   1.512       .  S
O703       Ni709   1.903       .  S
O703        C724   1.270       .  A
O704       Ni727   1.904       .  S
O704        C713   1.264       .  A
O705       Ni709   1.912       .  S
O705       Ni727   1.895       .  S
O705       Ni721   1.909       .  S
O705        H728   0.966       .  S
C706        O723   1.273       .  A
C706        O715   1.272       .  A
C706       C1376   1.493       .  S
O707       Ni726   1.966       .  S
O707        C713   1.278       .  A
O708       Ni726   1.883       .  S
O708        C710   1.278       .  A
Ni709       O712   1.932       .  S
Ni709       O714   1.892       .  S
C710        O720   1.297       .  A
C710       C1532   1.486       .  S
O711       Ni727   1.884       .  S
O711        C717   1.260       .  A
O712        C717   1.272       .  A
C713        C944   1.512       .  S
O714        C716   1.265       .  A
O715       Ni726   1.934       .  S
C716        O722   1.271       .  A
C716        C893   1.459       .  S
C717        C881   1.459       .  S
H718        O719   0.964       .  S
O719       Ni727   1.928       .  S
O719       Ni721   1.924       .  S
O719       Ni726   1.908       .  S
O720       Ni721   1.972       .  S
Ni721       O725   1.966       .  S
Ni721       O723   1.925       .  S
O722       Ni727   1.925       .  S
C724        O725   1.292       .  A
C724        C932   1.505       .  S
O729       Ni735   1.969       .  S
O729        C750   1.281       .  A
O730       Ni753   1.963   1_545  S
O730        C739   1.288       .  A
O731       Ni735   1.900       .  S
O731       Ni753   1.921       .  S
O731       Ni747   1.901       .  S
O731        H754   0.966       .  S
C732        O749   1.271       .  A
C732        O741   1.273       .  A
C732        C896   1.441       .  S
O733       Ni752   1.906       .  S
O733        C739   1.265   1_565  A
O734       Ni752   1.899       .  S
O734        C736   1.263       .  A
Ni735       O738   1.945       .  S
Ni735       O740   1.887       .  S
C736        O746   1.264       .  A
C736        C956   1.447       .  S
O737       Ni753   1.905       .  S
O737        C743   1.276       .  A
O738        C743   1.280       .  A
C739        C869   1.496       .  S
O740        C742   1.271       .  A
O741       Ni752   1.907       .  S
C742        O748   1.287       .  A
C742       C1700   1.485       .  S
C743       C1925   1.490       .  S
H744        O745   0.965       .  S
O745       Ni753   1.900       .  S
O745       Ni747   1.886       .  S
O745       Ni752   1.896       .  S
O746       Ni747   1.891       .  S
Ni747       O751   1.905       .  S
Ni747       O749   1.898       .  S
O748       Ni753   1.958       .  S
C750        O751   1.268       .  A
C750        C857   1.503       .  S
O755       Ni761   1.940       .  S
O755        C776   1.274       .  A
O756       Ni779   1.949       .  S
O756        C765   1.289       .  A
O757       Ni761   1.900       .  S
O757       Ni779   1.914       .  S
O757       Ni773   1.937       .  S
O757        H780   0.964       .  S
C758        O775   1.261       .  A
C758        O767   1.273       .  A
C758        C992   1.454       .  S
O759       Ni778   1.911       .  S
O759        C765   1.271       .  A
O760       Ni778   1.892       .  S
O760        C762   1.267       .  A
Ni761       O764   1.919       .  S
Ni761       O766   1.891       .  S
C762        O772   1.270       .  A
C762        C920   1.462       .  S
O763       Ni779   1.932       .  S
O763        C769   1.273       .  A
O764        C769   1.267       .  A
C765        C872   1.503       .  S
O766        C768   1.280       .  A
O767       Ni778   1.926       .  S
C768        O774   1.295       .  A
C768       C1244   1.478       .  S
C769       C1325   1.486       .  S
H770        O771   0.966       .  S
O771       Ni779   1.915       .  S
O771       Ni773   1.905       .  S
O771       Ni778   1.908       .  S
O772       Ni773   1.925       .  S
Ni773       O777   1.932       .  S
Ni773       O775   1.890       .  S
O774       Ni779   1.962       .  S
C776        O777   1.271       .  A
C776        C848   1.501       .  S
O781       Ni787   1.950       .  S
O781        C802   1.275       .  A
O782       Ni805   1.950       .  S
O782        C791   1.289       .  A
O783       Ni787   1.913       .  S
O783       Ni805   1.921       .  S
O783       Ni799   1.935       .  S
O783        H806   0.966       .  S
C784        O801   1.263       .  A
C784        O793   1.279       .  A
C784        C968   1.470       .  S
O785       Ni804   1.918       .  S
O785        C791   1.272       .  A
O786       Ni804   1.886       .  S
O786        C788   1.262       .  A
Ni787       O790   1.929       .  S
Ni787       O792   1.891       .  S
C788        O798   1.269       .  A
C788        C884   1.469       .  S
O789       Ni805   1.925       .  S
O789        C795   1.272       .  A
O790        C795   1.270       .  A
C791        C833   1.497       .  S
O792        C794   1.280       .  A
O793       Ni804   1.934       .  S
C794        O800   1.295       .  A
C794       C1796   1.481       .  S
C795       C1640   1.489       .  S
H796        O797   0.966       .  S
O797       Ni805   1.900       .  S
O797       Ni799   1.901       .  S
O797       Ni804   1.899       .  S
O798       Ni799   1.924       .  S
Ni799       O803   1.914       .  S
Ni799       O801   1.884       .  S
O800       Ni805   1.967       .  S
C802        O803   1.268       .  A
C802        C860   1.506       .  S
O807       Ni813   1.947       .  S
O807        C828   1.275       .  A
O808       Ni831   1.959       .  S
O808        C817   1.291       .  A
O809       Ni813   1.906       .  S
O809       Ni831   1.917       .  S
O809       Ni825   1.926       .  S
O809        H832   0.962       .  S
C810        O827   1.259       .  A
C810        O819   1.272       .  A
C810        C905   1.452       .  S
O811       Ni830   1.902       .  S
O811        C817   1.269       .  A
O812       Ni830   1.874       .  S
O812        C814   1.261       .  A
Ni813       O816   1.924       .  S
Ni813       O818   1.892       .  S
C814        O824   1.274       .  A
C814       C1004   1.438       .  S
O815       Ni831   1.925       .  S
O815        C821   1.272       .  A
O816        C821   1.268       .  A
C817        C836   1.513       .  S
O818        C820   1.280       .  A
O819       Ni830   1.925       .  S
C820        O826   1.298       .  A
C820       C1364   1.487       .  S
C821       C1544   1.481       .  S
H822        O823   0.966       .  S
O823       Ni831   1.914       .  S
O823       Ni825   1.904       .  S
O823       Ni830   1.905       .  S
O824       Ni825   1.935       .  S
Ni825       O829   1.923       .  S
Ni825       O827   1.883       .  S
O826       Ni831   1.974       .  S
C828        O829   1.270       .  A
C828        C845   1.507       .  S
C833        C834   1.416       .  A
C833        C838   1.400       .  A
C834        C835   1.413       .  A
C834        H839   1.084       .  S
C835        C836   1.409       .  A
C835        O840   1.371       .  S
C836        C837   1.423       .  A
C837        C838   1.407       .  A
C837        H841   1.083       .  S
C838        O842   1.371       .  S
O840        H844   0.992       .  S
O842        H843   0.992       .  S
C845        C846   1.411   1_655  A
C845        C850   1.416       .  A
C846        C847   1.414       .  A
C846        H851   1.083       .  S
C847        C848   1.412       .  A
C847        O852   1.371       .  S
C848        C849   1.406       .  A
C849        C850   1.409   1_455  A
C849        H853   1.084       .  S
C850        O854   1.372       .  S
O852        H856   0.992       .  S
O854        H855   0.992       .  S
C857        C858   1.410       .  A
C857        C862   1.413       .  A
C858        C859   1.415       .  A
C858        H863   1.083       .  S
C859        C860   1.415       .  A
C859        O864   1.371       .  S
C860        C861   1.409       .  A
C861        C862   1.405       .  A
C861        H865   1.083       .  S
C862        O866   1.372       .  S
O864        H868   0.992       .  S
O866        H867   0.992       .  S
C869        C870   1.400       .  A
C869        C874   1.420       .  A
C870        C871   1.410       .  A
C870        H875   1.083       .  S
C871        C872   1.425       .  A
C871        O876   1.372       .  S
C872        C873   1.401       .  A
C873        C874   1.408       .  A
C873        H877   1.084       .  S
C874        O878   1.373   1_545  S
O876        H880   0.992       .  S
O878        H879   0.992       .  S
C881        C882   1.400       .  A
C881        C886   1.408       .  A
C882        C883   1.395       .  A
C882        H887   1.084       .  S
C883        C884   1.413       .  A
C883        O888   1.372       .  S
C884        C885   1.402       .  A
C885        C886   1.388       .  A
C885        H889   1.084       .  S
C886        O890   1.373       .  S
O888        H892   0.992       .  S
O890        H891   0.992       .  S
C893        C894   1.404       .  A
C893        C898   1.408       .  A
C894        C895   1.386       .  A
C894        H899   1.083       .  S
C895        C896   1.399       .  A
C895        O900   1.373       .  S
C896        C897   1.399       .  A
C897        C898   1.394       .  A
C897        H901   1.084       .  S
C898        O902   1.372       .  S
O900        H904   0.992       .  S
O902        H903   0.992       .  S
C905        C906   1.397       .  A
C905        C910   1.403       .  A
C906        C907   1.386       .  A
C906        H911   1.083       .  S
C907        C908   1.410       .  A
C907        O912   1.373       .  S
C908        C909   1.407       .  A
C909        C910   1.396       .  A
C909        H913   1.083       .  S
C910        O914   1.372       .  S
O912        H916   0.992       .  S
O914        H915   0.992       .  S
C917        C918   1.397       .  A
C917        C922   1.404       .  A
C918        C919   1.379       .  A
C918        H923   1.085       .  S
C919        C920   1.410       .  A
C919        O924   1.371       .  S
C920        C921   1.406       .  A
C921        C922   1.396       .  A
C921        H925   1.083       .  S
C922        O926   1.372       .  S
O924        H928   0.992       .  S
O926        H927   0.992       .  S
C929        C930   1.425       .  A
C929        C934   1.405       .  A
C930        C931   1.411       .  A
C930        H935   1.083       .  S
C931        C932   1.402       .  A
C931        O936   1.371       .  S
C932        C933   1.420       .  A
C933        C934   1.409       .  A
C933        H937   1.083       .  S
C934        O938   1.371       .  S
O936        H940   0.992       .  S
O938        H939   0.992       .  S
C941        C942   1.408       .  A
C941        C946   1.417       .  A
C942        C943   1.403       .  A
C942        H947   1.084       .  S
C943        C944   1.417       .  A
C943        O948   1.373       .  S
C944        C945   1.412       .  A
C945        C946   1.421       .  A
C945        H949   1.083       .  S
C946        O950   1.371       .  S
O948        H952   0.992       .  S
O950        H951   0.992       .  S
C953        C954   1.399       .  A
C953        C958   1.412       .  A
C954        C955   1.385       .  A
C954        H959   1.084       .  S
C955        C956   1.406       .  A
C955        O960   1.372       .  S
C956        C957   1.396       .  A
C957        C958   1.390       .  A
C957        H961   1.084       .  S
C958        O962   1.372       .  S
O960        H964   0.992       .  S
O962        H963   0.992       .  S
C965        C966   1.398       .  A
C965        C970   1.408       .  A
C966        C967   1.400       .  A
C966        H971   1.084       .  S
C967        C968   1.415       .  A
C967        O972   1.373       .  S
C968        C969   1.399       .  A
C969        C970   1.388       .  A
C969        H973   1.084       .  S
C970        O974   1.373       .  S
O972        H976   0.990       .  S
O974        H975   0.992       .  S
C977        C978   1.410       .  A
C977        C982   1.416   1_455  A
C978        C979   1.413       .  A
C978        H983   1.084       .  S
C979        C980   1.414       .  A
C979        O984   1.371       .  S
C980        C981   1.407       .  A
C981        C982   1.413   1_455  A
C981        H985   1.083   1_455  S
C982        O986   1.371       .  S
O984        H988   0.992       .  S
O986        H987   0.992       .  S
C989        C990   1.410       .  A
C989        C994   1.408       .  A
C990        C991   1.398       .  A
C990        H995   1.083       .  S
C991        C992   1.401       .  A
C991        O996   1.371       .  S
C992        C993   1.399       .  A
C993        C994   1.383       .  A
C993        H997   1.084       .  S
C994        O998   1.372       .  S
O996       H1000   0.992       .  S
O998        H999   0.991       .  S
C1001      C1002   1.407       .  A
C1001      C1006   1.402       .  A
C1002      C1003   1.388       .  A
C1002      H1007   1.083       .  S
C1003      C1004   1.396       .  A
C1003      O1008   1.372       .  S
C1004      C1005   1.400       .  A
C1005      C1006   1.389       .  A
C1005      H1009   1.084       .  S
C1006      O1010   1.371       .  S
O1008      H1012   0.992       .  S
O1010      H1011   0.992       .  S
C1013      C1014   1.418       .  A
C1013      C1018   1.406       .  A
C1014      C1015   1.406       .  A
C1014      H1019   1.083       .  S
C1015      C1016   1.403       .  A
C1015      O1020   1.371       .  S
C1016      C1017   1.417       .  A
C1017      C1018   1.408       .  A
C1017      H1021   1.083       .  S
C1018      O1022   1.371       .  S
O1020      H1024   0.992       .  S
O1022      H1023   0.992       .  S
C1025      C1026   1.423       .  A
C1025      C1030   1.406       .  A
C1026      C1027   1.411       .  A
C1026      H1031   1.083       .  S
C1027      C1028   1.403       .  A
C1027      O1032   1.371       .  S
C1028      C1029   1.418       .  A
C1029      C1030   1.408       .  A
C1029      H1033   1.084       .  S
C1030      O1034   1.371       .  S
O1032      H1036   0.992       .  S
O1034      H1035   0.992       .  S
C1037      C1038   1.407       .  A
C1037      C1042   1.413       .  A
C1038      C1039   1.413       .  A
C1038      H1043   1.084       .  S
C1039      C1040   1.416       .  A
C1039      O1044   1.371       .  S
C1040      C1041   1.412       .  A
C1041      C1042   1.415       .  A
C1041      H1045   1.084       .  S
C1042      O1046   1.371       .  S
O1044      H1048   0.992       .  S
O1046      H1047   0.992       .  S
C1049      C1050   1.410       .  A
C1049      C1054   1.416       .  A
C1050      C1051   1.402       .  A
C1050      H1055   1.083       .  S
C1051      C1052   1.417   1_455  A
C1051      O1056   1.371   1_455  S
C1052      C1053   1.415   1_655  A
C1053      C1054   1.422       .  A
C1053      H1057   1.083   1_455  S
C1054      O1058   1.370       .  S
O1056      H1060   0.992   1_655  S
O1058      H1059   0.992       .  S
C1061      C1062   1.421       .  A
C1061      C1066   1.401       .  A
C1062      C1063   1.410       .  A
C1062      H1067   1.083       .  S
C1063      C1064   1.404       .  A
C1063      O1068   1.371       .  S
C1064      C1065   1.424       .  A
C1065      C1066   1.407       .  A
C1065      H1069   1.083       .  S
C1066      O1070   1.371       .  S
O1068      H1072   0.992       .  S
O1070      H1071   0.992       .  S
C1073      C1074   1.403       .  A
C1073      C1078   1.402       .  A
C1074      C1075   1.387       .  A
C1074      H1079   1.084       .  S
C1075      C1076   1.404       .  A
C1075      O1080   1.373       .  S
C1076      C1077   1.405       .  A
C1077      C1078   1.394       .  A
C1077      H1081   1.084       .  S
C1078      O1082   1.372       .  S
O1080      H1084   0.992       .  S
O1082      H1083   0.992       .  S
C1085      C1086   1.400       .  A
C1085      C1090   1.413       .  A
C1086      C1087   1.388       .  A
C1086      H1091   1.084       .  S
C1087      C1088   1.407       .  A
C1087      O1092   1.374       .  S
C1088      C1089   1.396       .  A
C1089      C1090   1.392       .  A
C1089      H1093   1.084       .  S
C1090      O1094   1.370       .  S
O1092      H1096   0.992       .  S
O1094      H1095   0.992       .  S
C1097      C1098   1.407       .  A
C1097      C1102   1.410       .  A
C1098      C1099   1.396       .  A
C1098      H1103   1.083       .  S
C1099      C1100   1.403       .  A
C1099      O1104   1.372       .  S
C1100      C1101   1.399       .  A
C1101      C1102   1.383       .  A
C1101      H1105   1.085       .  S
C1102      O1106   1.370       .  S
O1104      H1108   0.992       .  S
O1106      H1107   0.992       .  S
C1109      C1110   1.404       .  A
C1109      C1114   1.401       .  A
C1110      C1111   1.388       .  A
C1110      H1115   1.083       .  S
C1111      C1112   1.397       .  A
C1111      O1116   1.372       .  S
C1112      C1113   1.401       .  A
C1113      C1114   1.391       .  A
C1113      H1117   1.084       .  S
C1114      O1118   1.372       .  S
O1116      H1120   0.992       .  S
O1118      H1119   0.992       .  S
C1121      C1122   1.424       .  A
C1121      C1126   1.407       .  A
C1122      C1123   1.411       .  A
C1122      H1127   1.083       .  S
C1123      C1124   1.402       .  A
C1123      O1128   1.371       .  S
C1124      C1125   1.419       .  A
C1125      C1126   1.412       .  A
C1125      H1129   1.084       .  S
C1126      O1130   1.371       .  S
O1128      H1132   0.992       .  S
O1130      H1131   0.992       .  S
C1133      C1134   1.409       .  A
C1133      C1138   1.417       .  A
C1134      C1135   1.412   1_455  A
C1134      H1139   1.078   1_455  S
C1135      C1136   1.413   1_655  A
C1135      O1140   1.371       .  S
C1136      C1137   1.409       .  A
C1137      C1138   1.416       .  A
C1137      H1141   1.082       .  S
C1138      O1142   1.371       .  S
O1140      H1144   0.992       .  S
O1142      H1143   0.992       .  S
C1145      C1146   1.396       .  A
C1145      C1150   1.406       .  A
C1146      C1147   1.392       .  A
C1146      H1151   1.084       .  S
C1147      C1148   1.412       .  A
C1147      O1152   1.368       .  S
C1148      C1149   1.403       .  A
C1149      C1150   1.392       .  A
C1149      H1153   1.084       .  S
C1150      O1154   1.373       .  S
O1152      H1156   0.991       .  S
O1154      H1155   0.992       .  S
C1157      C1158   1.406       .  A
C1157      C1162   1.404       .  A
C1158      C1159   1.389       .  A
C1158      H1163   1.084       .  S
C1159      C1160   1.401       .  A
C1159      O1164   1.373       .  S
C1160      C1161   1.403       .  A
C1161      C1162   1.394       .  A
C1161      H1165   1.084       .  S
C1162      O1166   1.371       .  S
O1164      H1168   0.992       .  S
O1166      H1167   0.992       .  S
C1169      C1170   1.396       .  A
C1169      C1174   1.403       .  A
C1170      C1171   1.382       .  A
C1170      H1175   1.084       .  S
C1171      C1172   1.410       .  A
C1171      O1176   1.371       .  S
C1172      C1173   1.406       .  A
C1173      C1174   1.395       .  A
C1173      H1177   1.083       .  S
C1174      O1178   1.372       .  S
O1176      H1180   0.992       .  S
O1178      H1179   0.992       .  S
C1181      C1182   1.412       .  A
C1181      C1186   1.416       .  A
C1182      C1183   1.414       .  A
C1182      H1187   1.083       .  S
C1183      C1184   1.414       .  A
C1183      O1188   1.371       .  S
C1184      C1185   1.410       .  A
C1185      C1186   1.416       .  A
C1185      H1189   1.083       .  S
C1186      O1190   1.371       .  S
O1188      H1192   0.992       .  S
O1190      H1191   0.992       .  S
C1193      C1194   1.396       .  A
C1193      C1198   1.402       .  A
C1194      C1195   1.381       .  A
C1194      H1199   1.085       .  S
C1195      C1196   1.411       .  A
C1195      O1200   1.371       .  S
C1196      C1197   1.407       .  A
C1197      C1198   1.396       .  A
C1197      H1201   1.083       .  S
C1198      O1202   1.372       .  S
O1200      H1204   0.992       .  S
O1202      H1203   0.992       .  S
C1205      C1206   1.418       .  A
C1205      C1210   1.403       .  A
C1206      C1207   1.412       .  A
C1206      H1211   1.084       .  S
C1207      C1208   1.408       .  A
C1207      O1212   1.371       .  S
C1208      C1209   1.423       .  A
C1209      C1210   1.411       .  A
C1209      H1213   1.083       .  S
C1210      O1214   1.371       .  S
O1212      H1216   0.992       .  S
O1214      H1215   0.992       .  S
C1217      C1218   1.409   1_656  A
C1217      C1222   1.409       .  A
C1218      C1219   1.396       .  A
C1218      H1223   1.083       .  S
C1219      C1220   1.408       .  A
C1219      O1224   1.372       .  S
C1220      C1221   1.410   1_554  A
C1221      C1222   1.399   1_455  A
C1221      H1225   1.083       .  S
C1222      O1226   1.373       .  S
O1224      H1228   0.992       .  S
O1226      H1227   0.992       .  S
C1229      C1230   1.412   1_554  A
C1229      C1234   1.410       .  A
C1230      C1231   1.406       .  A
C1230      H1235   1.083       .  S
C1231      C1232   1.409       .  A
C1231      O1236   1.372       .  S
C1232      C1233   1.410   1_556  A
C1233      C1234   1.404       .  A
C1233      H1237   1.083       .  S
C1234      O1238   1.371       .  S
O1236      H1240   0.992       .  S
O1238      H1239   0.992       .  S
C1241      C1242   1.400       .  A
C1241      C1246   1.415       .  A
C1242      C1243   1.395       .  A
C1242      H1247   1.084       .  S
C1243      C1244   1.416       .  A
C1243      O1248   1.372       .  S
C1244      C1245   1.401       .  A
C1245      C1246   1.396       .  A
C1245      H1249   1.084       .  S
C1246      O1250   1.372       .  S
O1248      H1252   0.992       .  S
O1250      H1251   0.992       .  S
C1253      C1254   1.404       .  A
C1253      C1258   1.409       .  A
C1254      C1255   1.399       .  A
C1254      H1259   1.084       .  S
C1255      C1256   1.411       .  A
C1255      O1260   1.372       .  S
C1256      C1257   1.405       .  A
C1257      C1258   1.396       .  A
C1257      H1261   1.084       .  S
C1258      O1262   1.372       .  S
O1260      H1264   0.992       .  S
O1262      H1263   0.992       .  S
C1265      C1266   1.423       .  A
C1265      C1270   1.403       .  A
C1266      C1267   1.404       .  A
C1266      H1271   1.083       .  S
C1267      C1268   1.401       .  A
C1267      O1272   1.372       .  S
C1268      C1269   1.421       .  A
C1269      C1270   1.410       .  A
C1269      H1273   1.083       .  S
C1270      O1274   1.371       .  S
O1272      H1276   0.992       .  S
O1274      H1275   0.992       .  S
C1277      C1278   1.401   1_545  A
C1277      C1282   1.419       .  A
C1278      C1279   1.403       .  A
C1278      H1283   1.083       .  S
C1279      C1280   1.418   1_554  A
C1279      O1284   1.372       .  S
C1280      C1281   1.399   1_565  A
C1281      C1282   1.396   1_556  A
C1281      H1285   1.084       .  S
C1282      O1286   1.372       .  S
O1284      H1288   0.992   1_554  S
O1286      H1287   0.992       .  S
C1289      C1290   1.403       .  A
C1289      C1294   1.420   1_554  A
C1290      C1291   1.404       .  A
C1290      H1295   1.083       .  S
C1291      C1292   1.416   1_554  A
C1291      O1296   1.372       .  S
C1292      C1293   1.401       .  A
C1293      C1294   1.404       .  A
C1293      H1297   1.084       .  S
C1294      O1298   1.372       .  S
O1296      H1300   0.992       .  S
O1298      H1299   0.992       .  S
C1301      C1302   1.402       .  A
C1301      C1306   1.401       .  A
C1302      C1303   1.379       .  A
C1302      H1307   1.085       .  S
C1303      C1304   1.405       .  A
C1303      O1308   1.374       .  S
C1304      C1305   1.406       .  A
C1305      C1306   1.395       .  A
C1305      H1309   1.084       .  S
C1306      O1310   1.371       .  S
O1308      H1312   0.992       .  S
O1310      H1311   0.992       .  S
C1313      C1314   1.407       .  A
C1313      C1318   1.411       .  A
C1314      C1315   1.397       .  A
C1314      H1319   1.083       .  S
C1315      C1316   1.411       .  A
C1315      O1320   1.373       .  S
C1316      C1317   1.409       .  A
C1317      C1318   1.400       .  A
C1317      H1321   1.083       .  S
C1318      O1322   1.372       .  S
O1320      H1324   0.992       .  S
O1322      H1323   0.992       .  S
C1325      C1326   1.401       .  A
C1325      C1330   1.416       .  A
C1326      C1327   1.405   1_545  A
C1326      H1331   1.084       .  S
C1327      C1328   1.419       .  A
C1327      O1332   1.371       .  S
C1328      C1329   1.401   1_565  A
C1329      C1330   1.400       .  A
C1329      H1333   1.083       .  S
C1330      O1334   1.373       .  S
O1332      H1336   0.992       .  S
O1334      H1335   0.992       .  S
C1337      C1338   1.404       .  A
C1337      C1342   1.409       .  A
C1338      C1339   1.394       .  A
C1338      H1343   1.084       .  S
C1339      C1340   1.405       .  A
C1339      O1344   1.372       .  S
C1340      C1341   1.398       .  A
C1341      C1342   1.383       .  A
C1341      H1345   1.083       .  S
C1342      O1346   1.372       .  S
O1344      H1348   0.992       .  S
O1346      H1347   0.992       .  S
C1349      C1350   1.403       .  A
C1349      C1354   1.422       .  A
C1350      C1351   1.413       .  A
C1350      H1355   1.083       .  S
C1351      C1352   1.418       .  A
C1351      O1356   1.372       .  S
C1352      C1353   1.400       .  A
C1353      C1354   1.409       .  A
C1353      H1357   1.084       .  S
C1354      O1358   1.373       .  S
O1356      H1360   0.992       .  S
O1358      H1359   0.992       .  S
C1361      C1362   1.413       .  A
C1361      C1366   1.407       .  A
C1362      C1363   1.396       .  A
C1362      H1367   1.083       .  S
C1363      C1364   1.406       .  A
C1363      O1368   1.372       .  S
C1364      C1365   1.414       .  A
C1365      C1366   1.402       .  A
C1365      H1369   1.083       .  S
C1366      O1370   1.372       .  S
O1368      H1372   0.992       .  S
O1370      H1371   0.992       .  S
C1373      C1374   1.411       .  A
C1373      C1378   1.408       .  A
C1374      C1375   1.404       .  A
C1374      H1379   1.083       .  S
C1375      C1376   1.410   1_545  A
C1375      O1380   1.371       .  S
C1376      C1377   1.410       .  A
C1377      C1378   1.404   1_565  A
C1377      H1381   1.083       .  S
C1378      O1382   1.371       .  S
O1380      H1384   0.992       .  S
O1382      H1383   0.992       .  S
C1385      C1386   1.411       .  A
C1385      C1390   1.415       .  A
C1386      C1387   1.420       .  A
C1386      H1391   1.083       .  S
C1387      C1388   1.418       .  A
C1387      O1392   1.371       .  S
C1388      C1389   1.410       .  A
C1389      C1390   1.406       .  A
C1389      H1393   1.083       .  S
C1390      O1394   1.372       .  S
O1392      H1396   0.992       .  S
O1394      H1395   0.992       .  S
C1397      C1398   1.402       .  A
C1397      C1402   1.410       .  A
C1398      C1399   1.395       .  A
C1398      H1403   1.084       .  S
C1399      C1400   1.409       .  A
C1399      O1404   1.372       .  S
C1400      C1401   1.398       .  A
C1401      C1402   1.381       .  A
C1401      H1405   1.083       .  S
C1402      O1406   1.373       .  S
O1404      H1408   0.992       .  S
O1406      H1407   0.991       .  S
C1409      C1410   1.409   1_655  A
C1409      C1414   1.411   1_665  A
C1410      C1411   1.397   1_554  A
C1410      H1415   1.083   1_554  S
C1411      C1412   1.410   1_566  A
C1411      O1416   1.372       .  S
C1412      C1413   1.409       .  A
C1413      C1414   1.401       .  A
C1413      H1417   1.083       .  S
C1414      O1418   1.371   1_455  S
O1416      H1420   0.992       .  S
O1418      H1419   0.992       .  S
C1421      C1422   1.411   1_556  A
C1421      C1426   1.409       .  A
C1422      C1423   1.399       .  A
C1422      H1427   1.083       .  S
C1423      C1424   1.405       .  A
C1423      O1428   1.372       .  S
C1424      C1425   1.409   1_554  A
C1425      C1426   1.403       .  A
C1425      H1429   1.084       .  S
C1426      O1430   1.371       .  S
O1428      H1432   0.992       .  S
O1430      H1431   0.991       .  S
C1433      C1434   1.397       .  A
C1433      C1438   1.397       .  A
C1434      C1435   1.388       .  A
C1434      H1439   1.084       .  S
C1435      C1436   1.405       .  A
C1435      O1440   1.372       .  S
C1436      C1437   1.404       .  A
C1437      C1438   1.387       .  A
C1437      H1441   1.083       .  S
C1438      O1442   1.371       .  S
O1440      H1444   0.992       .  S
O1442      H1443   0.992       .  S
C1445      C1446   1.425       .  A
C1445      C1450   1.404       .  A
C1446      C1447   1.413       .  A
C1446      H1451   1.083       .  S
C1447      C1448   1.403       .  A
C1447      O1452   1.371       .  S
C1448      C1449   1.423       .  A
C1449      C1450   1.410       .  A
C1449      H1453   1.083       .  S
C1450      O1454   1.371       .  S
O1452      H1456   0.992       .  S
O1454      H1455   0.992       .  S
C1457      C1458   1.409       .  A
C1457      C1462   1.417       .  A
C1458      C1459   1.416       .  A
C1458      H1463   1.083       .  S
C1459      C1460   1.416       .  A
C1459      O1464   1.371       .  S
C1460      C1461   1.411   1_455  A
C1461      C1462   1.418   1_655  A
C1461      H1465   1.083       .  S
C1462      O1466   1.371   1_455  S
O1464      H1468   0.992       .  S
O1466      H1467   0.992       .  S
C1469      C1470   1.412   1_554  A
C1469      C1474   1.408       .  A
C1470      C1471   1.404       .  A
C1470      H1475   1.083       .  S
C1471      C1472   1.408       .  A
C1471      O1476   1.371       .  S
C1472      C1473   1.410       .  A
C1473      C1474   1.395   1_556  A
C1473      H1477   1.083       .  S
C1474      O1478   1.372       .  S
O1476      H1480   0.992       .  S
O1478      H1479   0.992       .  S
C1481      C1482   1.396       .  A
C1481      C1486   1.415   1_554  A
C1482      C1483   1.398       .  A
C1482      H1487   1.084       .  S
C1483      C1484   1.421   1_554  A
C1483      O1488   1.372       .  S
C1484      C1485   1.400       .  A
C1485      C1486   1.399       .  A
C1485      H1489   1.083       .  S
C1486      O1490   1.373       .  S
O1488      H1492   0.992       .  S
O1490      H1491   0.992       .  S
C1493      C1494   1.411       .  A
C1493      C1498   1.418       .  A
C1494      C1495   1.411       .  A
C1494      H1499   1.083       .  S
C1495      C1496   1.411       .  A
C1495      O1500   1.370       .  S
C1496      C1497   1.410       .  A
C1497      C1498   1.415       .  A
C1497      H1501   1.084       .  S
C1498      O1502   1.372       .  S
O1500      H1504   0.992       .  S
O1502      H1503   0.992       .  S
C1505      C1506   1.399       .  A
C1505      C1510   1.416       .  A
C1506      C1507   1.390       .  A
C1506      H1511   1.084       .  S
C1507      C1508   1.406       .  A
C1507      O1512   1.374       .  S
C1508      C1509   1.393       .  A
C1509      C1510   1.391       .  A
C1509      H1513   1.084       .  S
C1510      O1514   1.370       .  S
O1512      H1516   0.992       .  S
O1514      H1515   0.992       .  S
C1517      C1518   1.402       .  A
C1517      C1522   1.415       .  A
C1518      C1519   1.386       .  A
C1518      H1523   1.084       .  S
C1519      C1520   1.406       .  A
C1519      O1524   1.373       .  S
C1520      C1521   1.399       .  A
C1521      C1522   1.397       .  A
C1521      H1525   1.084       .  S
C1522      O1526   1.372       .  S
O1524      H1528   0.992       .  S
O1526      H1527   0.992       .  S
C1529      C1530   1.413       .  A
C1529      C1534   1.405       .  A
C1530      C1531   1.400       .  A
C1530      H1535   1.083       .  S
C1531      C1532   1.406       .  A
C1531      O1536   1.372       .  S
C1532      C1533   1.412       .  A
C1533      C1534   1.396       .  A
C1533      H1537   1.083       .  S
C1534      O1538   1.372       .  S
O1536      H1540   0.992       .  S
O1538      H1539   0.992       .  S
C1541      C1542   1.402       .  A
C1541      C1546   1.420       .  A
C1542      C1543   1.400       .  A
C1542      H1547   1.083       .  S
C1543      C1544   1.415       .  A
C1543      O1548   1.372       .  S
C1544      C1545   1.399       .  A
C1545      C1546   1.400       .  A
C1545      H1549   1.084       .  S
C1546      O1550   1.372       .  S
O1548      H1552   0.992       .  S
O1550      H1551   0.992       .  S
C1553      C1554   1.412       .  A
C1553      C1558   1.421       .  A
C1554      C1555   1.416   1_455  A
C1554      H1559   1.083       .  S
C1555      C1556   1.411       .  A
C1555      O1560   1.371       .  S
C1556      C1557   1.404   1_655  A
C1557      C1558   1.411       .  A
C1557      H1561   1.084       .  S
C1558      O1562   1.372       .  S
O1560      H1564   0.992       .  S
O1562      H1563   0.992       .  S
C1565      C1566   1.400       .  A
C1565      C1570   1.408       .  A
C1566      C1567   1.397       .  A
C1566      H1571   1.084       .  S
C1567      C1568   1.411       .  A
C1567      O1572   1.372       .  S
C1568      C1569   1.399       .  A
C1569      C1570   1.381       .  A
C1569      H1573   1.084       .  S
C1570      O1574   1.373   1_655  S
O1572      H1576   0.992       .  S
O1574      H1575   0.992       .  S
C1577      C1578   1.400       .  A
C1577      C1582   1.403       .  A
C1578      C1579   1.388       .  A
C1578      H1583   1.084       .  S
C1579      C1580   1.410       .  A
C1579      O1584   1.372       .  S
C1580      C1581   1.406       .  A
C1581      C1582   1.392       .  A
C1581      H1585   1.083       .  S
C1582      O1586   1.372       .  S
O1584      H1588   0.992       .  S
O1586      H1587   0.992       .  S
C1589      C1590   1.416       .  A
C1589      C1594   1.403       .  A
C1590      C1591   1.407       .  A
C1590      H1595   1.084       .  S
C1591      C1592   1.407       .  A
C1591      O1596   1.371       .  S
C1592      C1593   1.423       .  A
C1593      C1594   1.414       .  A
C1593      H1597   1.083       .  S
C1594      O1598   1.371       .  S
O1596      H1600   0.992       .  S
O1598      H1599   0.992       .  S
C1601      C1602   1.399       .  A
C1601      C1606   1.421       .  A
C1602      C1603   1.397       .  A
C1602      H1607   1.083       .  S
C1603      C1604   1.420       .  A
C1603      O1608   1.372       .  S
C1604      C1605   1.399       .  A
C1605      C1606   1.395       .  A
C1605      H1609   1.084       .  S
C1606      O1610   1.372       .  S
O1608      H1612   0.992       .  S
O1610      H1611   0.992       .  S
C1613      C1614   1.413       .  A
C1613      C1618   1.408       .  A
C1614      C1615   1.406       .  A
C1614      H1619   1.083       .  S
C1615      C1616   1.407       .  A
C1615      O1620   1.372       .  S
C1616      C1617   1.408       .  A
C1617      C1618   1.398       .  A
C1617      H1621   1.084       .  S
C1618      O1622   1.371       .  S
O1620      H1624   0.992       .  S
O1622      H1623   0.992       .  S
C1625      C1626   1.401       .  A
C1625      C1630   1.419       .  A
C1626      C1627   1.397       .  A
C1626      H1631   1.083       .  S
C1627      C1628   1.419   1_455  A
C1627      O1632   1.372       .  S
C1628      C1629   1.402       .  A
C1629      C1630   1.402   1_655  A
C1629      H1633   1.083       .  S
C1630      O1634   1.372       .  S
O1632      H1636   0.992       .  S
O1634      H1635   0.992       .  S
C1637      C1638   1.412       .  A
C1637      C1642   1.408       .  A
C1638      C1639   1.404       .  A
C1638      H1643   1.083       .  S
C1639      C1640   1.407       .  A
C1639      O1644   1.371       .  S
C1640      C1641   1.410       .  A
C1641      C1642   1.403       .  A
C1641      H1645   1.084       .  S
C1642      O1646   1.371       .  S
O1644      H1648   0.992       .  S
O1646      H1647   0.991       .  S
C1649      C1650   1.426       .  A
C1649      C1654   1.404       .  A
C1650      C1651   1.412       .  A
C1650      H1655   1.083       .  S
C1651      C1652   1.401       .  A
C1651      O1656   1.371       .  S
C1652      C1653   1.420       .  A
C1653      C1654   1.410       .  A
C1653      H1657   1.084       .  S
C1654      O1658   1.370       .  S
O1656      H1660   0.992       .  S
O1658      H1659   0.991       .  S
C1661      C1662   1.413       .  A
C1661      C1666   1.408       .  A
C1662      C1663   1.399       .  A
C1662      H1667   1.083       .  S
C1663      C1664   1.408       .  A
C1663      O1668   1.372       .  S
C1664      C1665   1.413       .  A
C1665      C1666   1.405       .  A
C1665      H1669   1.083       .  S
C1666      O1670   1.371       .  S
O1668      H1672   0.992       .  S
O1670      H1671   0.992       .  S
C1673      C1674   1.405       .  A
C1673      C1678   1.412       .  A
C1674      C1675   1.398       .  A
C1674      H1679   1.084       .  S
C1675      C1676   1.409   1_565  A
C1675      O1680   1.371       .  S
C1676      C1677   1.404       .  A
C1677      C1678   1.400   1_545  A
C1677      H1681   1.084       .  S
C1678      O1682   1.372       .  S
O1680      H1684   0.992       .  S
O1682      H1683   0.992       .  S
C1685      C1686   1.400       .  A
C1685      C1690   1.397       .  A
C1686      C1687   1.393       .  A
C1686      H1691   1.084       .  S
C1687      C1688   1.406       .  A
C1687      O1692   1.372       .  S
C1688      C1689   1.403       .  A
C1689      C1690   1.380       .  A
C1689      H1693   1.082       .  S
C1690      O1694   1.373       .  S
O1692      H1696   0.992       .  S
O1694      H1695   0.992       .  S
C1697      C1698   1.411       .  A
C1697      C1702   1.407   1_545  A
C1698      C1699   1.399       .  A
C1698      H1703   1.083       .  S
C1699      C1700   1.407   1_545  A
C1699      O1704   1.371       .  S
C1700      C1701   1.411       .  A
C1701      C1702   1.397       .  A
C1701      H1705   1.083       .  S
C1702      O1706   1.373       .  S
O1704      H1708   0.992       .  S
O1706      H1707   0.992       .  S
C1709      C1710   1.405       .  A
C1709      C1714   1.422       .  A
C1710      C1711   1.408       .  A
C1710      H1715   1.083       .  S
C1711      C1712   1.415       .  A
C1711      O1716   1.372       .  S
C1712      C1713   1.397       .  A
C1713      C1714   1.398       .  A
C1713      H1717   1.084       .  S
C1714      O1718   1.372       .  S
O1716      H1720   0.992       .  S
O1718      H1719   0.992       .  S
C1721      C1722   1.408       .  A
C1721      C1726   1.411       .  A
C1722      C1723   1.396       .  A
C1722      H1727   1.083       .  S
C1723      C1724   1.401       .  A
C1723      O1728   1.371       .  S
C1724      C1725   1.397       .  A
C1725      C1726   1.385       .  A
C1725      H1729   1.085       .  S
C1726      O1730   1.371       .  S
O1728      H1732   0.992       .  S
O1730      H1731   0.992       .  S
C1733      C1734   1.418       .  A
C1733      C1738   1.402       .  A
C1734      C1735   1.411       .  A
C1734      H1739   1.084       .  S
C1735      C1736   1.406       .  A
C1735      O1740   1.371       .  S
C1736      C1737   1.422       .  A
C1737      C1738   1.410       .  A
C1737      H1741   1.083       .  S
C1738      O1742   1.371       .  S
O1740      H1744   0.992       .  S
O1742      H1743   0.992       .  S
C1745      C1746   1.411       .  A
C1745      C1750   1.408       .  A
C1746      C1747   1.401       .  A
C1746      H1751   1.083       .  S
C1747      C1748   1.407       .  A
C1747      O1752   1.371       .  S
C1748      C1749   1.411       .  A
C1749      C1750   1.401       .  A
C1749      H1753   1.083       .  S
C1750      O1754   1.371       .  S
O1752      H1756   0.992       .  S
O1754      H1755   0.992       .  S
C1757      C1758   1.408       .  A
C1757      C1762   1.416       .  A
C1758      C1759   1.408       .  A
C1758      H1763   1.083       .  S
C1759      C1760   1.413       .  A
C1759      O1764   1.371       .  S
C1760      C1761   1.404       .  A
C1761      C1762   1.402       .  A
C1761      H1765   1.084       .  S
C1762      O1766   1.372       .  S
O1764      H1768   0.992       .  S
O1766      H1767   0.992       .  S
C1769      C1770   1.411       .  A
C1769      C1774   1.417       .  A
C1770      C1771   1.419   1_455  A
C1770      H1775   1.083       .  S
C1771      C1772   1.417       .  A
C1771      O1776   1.371       .  S
C1772      C1773   1.408   1_655  A
C1773      C1774   1.406       .  A
C1773      H1777   1.084   1_455  S
C1774      O1778   1.372       .  S
O1776      H1780   0.992       .  S
O1778      H1779   0.992       .  S
C1781      C1782   1.400       .  A
C1781      C1786   1.409       .  A
C1782      C1783   1.382       .  A
C1782      H1787   1.084       .  S
C1783      C1784   1.408       .  A
C1783      O1788   1.373       .  S
C1784      C1785   1.401       .  A
C1785      C1786   1.396       .  A
C1785      H1789   1.084       .  S
C1786      O1790   1.371       .  S
O1788      H1792   0.992       .  S
O1790      H1791   0.992       .  S
C1793      C1794   1.411       .  A
C1793      C1798   1.405       .  A
C1794      C1795   1.396       .  A
C1794      H1799   1.084       .  S
C1795      C1796   1.405       .  A
C1795      O1800   1.372       .  S
C1796      C1797   1.412       .  A
C1797      C1798   1.397       .  A
C1797      H1801   1.083       .  S
C1798      O1802   1.372       .  S
O1800      H1804   0.992       .  S
O1802      H1803   0.992       .  S
C1805      C1806   1.399       .  A
C1805      C1810   1.409       .  A
C1806      C1807   1.401       .  A
C1806      H1811   1.084       .  S
C1807      C1808   1.417       .  A
C1807      O1812   1.372       .  S
C1808      C1809   1.405       .  A
C1809      C1810   1.396       .  A
C1809      H1813   1.083       .  S
C1810      O1814   1.372       .  S
O1812      H1816   0.992       .  S
O1814      H1815   0.992       .  S
C1817      C1818   1.411       .  A
C1817      C1822   1.412       .  A
C1818      C1819   1.418       .  A
C1818      H1823   1.083       .  S
C1819      C1820   1.416       .  A
C1819      O1824   1.371       .  S
C1820      C1821   1.409       .  A
C1821      C1822   1.405       .  A
C1821      H1825   1.082       .  S
C1822      O1826   1.372       .  S
O1824      H1828   0.992       .  S
O1826      H1827   0.992       .  S
C1829      C1830   1.394       .  A
C1829      C1834   1.401       .  A
C1830      C1831   1.389       .  A
C1830      H1835   1.085       .  S
C1831      C1832   1.412       .  A
C1831      O1836   1.372       .  S
C1832      C1833   1.406       .  A
C1833      C1834   1.393       .  A
C1833      H1837   1.083       .  S
C1834      O1838   1.372       .  S
O1836      H1840   0.992       .  S
O1838      H1839   0.992       .  S
C1841      C1842   1.402       .  A
C1841      C1846   1.418       .  A
C1842      C1843   1.414       .  A
C1842      H1847   1.083       .  S
C1843      C1844   1.422       .  A
C1843      O1848   1.372       .  S
C1844      C1845   1.403       .  A
C1845      C1846   1.409       .  A
C1845      H1849   1.084       .  S
C1846      O1850   1.373       .  S
O1848      H1852   0.992       .  S
O1850      H1851   0.992       .  S
C1853      C1854   1.402       .  A
C1853      C1858   1.412       .  A
C1854      C1855   1.400       .  A
C1854      H1859   1.083       .  S
C1855      C1856   1.413       .  A
C1855      O1860   1.372       .  S
C1856      C1857   1.403       .  A
C1857      C1858   1.398       .  A
C1857      H1861   1.084       .  S
C1858      O1862   1.372       .  S
O1860      H1864   0.992       .  S
O1862      H1863   0.992       .  S
C1865      C1866   1.401   1_545  A
C1865      C1870   1.417       .  A
C1866      C1867   1.395       .  A
C1866      H1871   1.083       .  S
C1867      C1868   1.413       .  A
C1867      O1872   1.372       .  S
C1868      C1869   1.401       .  A
C1869      C1870   1.401   1_565  A
C1869      H1873   1.084       .  S
C1870      O1874   1.372       .  S
O1872      H1876   0.992       .  S
O1874      H1875   0.992       .  S
C1877      C1878   1.410       .  A
C1877      C1882   1.419       .  A
C1878      C1879   1.419       .  A
C1878      H1883   1.083       .  S
C1879      C1880   1.417       .  A
C1879      O1884   1.371       .  S
C1880      C1881   1.406       .  A
C1881      C1882   1.404       .  A
C1881      H1885   1.084       .  S
C1882      O1886   1.372       .  S
O1884      H1888   0.992       .  S
O1886      H1887   0.992       .  S
C1889      C1890   1.394       .  A
C1889      C1894   1.405       .  A
C1890      C1891   1.388       .  A
C1890      H1895   1.084       .  S
C1891      C1892   1.413       .  A
C1891      O1896   1.372       .  S
C1892      C1893   1.399       .  A
C1893      C1894   1.390       .  A
C1893      H1897   1.084       .  S
C1894      O1898   1.373       .  S
O1896      H1900   0.992       .  S
O1898      H1899   0.992       .  S
C1901      C1902   1.401       .  A
C1901      C1906   1.412       .  A
C1902      C1903   1.388       .  A
C1902      H1907   1.084       .  S
C1903      C1904   1.405       .  A
C1903      O1908   1.373       .  S
C1904      C1905   1.400       .  A
C1905      C1906   1.401       .  A
C1905      H1909   1.084       .  S
C1906      O1910   1.374       .  S
O1908      H1912   0.992       .  S
O1910      H1911   0.990       .  S
C1913      C1914   1.411       .  A
C1913      C1918   1.409   1_565  A
C1914      C1915   1.402   1_455  A
C1914      H1919   1.083       .  S
C1915      C1916   1.409   1_565  A
C1915      O1920   1.372       .  S
C1916      C1917   1.411   1_655  A
C1917      C1918   1.400       .  A
C1917      H1921   1.083       .  S
C1918      O1922   1.372       .  S
O1920      H1924   0.992       .  S
O1922      H1923   0.992       .  S
C1925      C1926   1.412       .  A
C1925      C1930   1.412       .  A
C1926      C1927   1.403       .  A
C1926      H1931   1.083       .  S
C1927      C1928   1.405       .  A
C1927      O1932   1.371       .  S
C1928      C1929   1.404       .  A
C1929      C1930   1.398       .  A
C1929      H1933   1.084       .  S
C1930      O1934   1.371       .  S
O1932      H1936   0.992       .  S
O1934      H1935   0.992   1_565  S
C1937      C1938   1.410       .  A
C1937      C1942   1.409       .  A
C1938      C1939   1.395       .  A
C1938      H1943   1.083       .  S
C1939      C1940   1.400       .  A
C1939      O1944   1.371       .  S
C1940      C1941   1.398       .  A
C1941      C1942   1.390       .  A
C1941      H1945   1.084       .  S
C1942      O1946   1.373       .  S
O1944      H1948   0.992       .  S
O1946      H1947   0.991       .  S
C1949      C1950   1.411   1_455  A
C1949      C1954   1.417       .  A
C1950      C1951   1.416       .  A
C1950      H1955   1.083       .  S
C1951      C1952   1.415   1_655  A
C1951      O1956   1.371       .  S
C1952      C1953   1.410       .  A
C1953      C1954   1.415       .  A
C1953      H1957   1.084       .  S
C1954      O1958   1.371       .  S
O1956      H1960   0.992       .  S
O1958      H1959   0.992       .  S
C1961      C1962   1.409       .  A
C1961      C1966   1.403       .  A
C1962      C1963   1.393       .  A
C1962      H1967   1.083       .  S
C1963      C1964   1.400       .  A
C1963      O1968   1.372       .  S
C1964      C1965   1.402       .  A
C1965      C1966   1.389       .  A
C1965      H1969   1.084       .  S
C1966      O1970   1.372       .  S
O1968      H1972   0.992       .  S
O1970      H1971   0.992       .  S
C1973      C1974   1.403       .  A
C1973      C1978   1.425       .  A
C1974      C1975   1.407       .  A
C1974      H1979   1.084       .  S
C1975      C1976   1.422       .  A
C1975      O1980   1.372       .  S
C1976      C1977   1.401       .  A
C1977      C1978   1.412       .  A
C1977      H1981   1.083       .  S
C1978      O1982   1.371       .  S
O1980      H1984   0.992       .  S
O1982      H1983   0.992       .  S
