geometry optimzed in LAMMPS
_audit_creation_date              2020-11-30 
_audit_creation_method            'lammps2cif' 
_symmetry_space_group_name_H-M    'P1' 
_symmetry_Int_Tables_number       1 
_symmetry_cell_setting            triclinic 
loop_ 
_symmetry_equiv_pos_as_xyz 
  x,y,z 
_cell_length_a                    54.35315993 
_cell_length_b                    54.46897282353947 
_cell_length_c                    57.51807577412373 
_cell_angle_alpha                 90.10643030137139 
_cell_angle_beta                  89.78049899137281 
_cell_angle_gamma                 121.70895794803674 
loop_ 
_atom_site_label 
_atom_site_type_symbol 
_atom_site_fract_x 
_atom_site_fract_y 
_atom_site_fract_z 
_atom_site_charge 
O1          O  0.36541831  0.52770881  0.56990329    -0.84800
O2          O  0.30753340  0.50888449  0.57442791    -0.81800
C3          C  0.29495366  0.48226436  0.57046809     0.98700
O4          O  0.29754283  0.46599559  0.58450918    -0.81900
O5          O  0.32247246  0.45037013  0.61912960    -0.84500
C6          C  0.34662469  0.45391261  0.61306442     1.03200
O7          O  0.36841790  0.47897672  0.61023889    -0.77300
O8          O  0.39851166  0.53525810  0.59564630    -0.77500
C9          C  0.39074749  0.53424105  0.57468845     1.03200
O10         O  0.37835748  0.56828502  0.60611415    -0.84800
O11         O  0.32069910  0.54329275  0.61460558    -0.81800
C12         C  0.29501408  0.52487364  0.62034257     0.98700
O13         O  0.28561184  0.49812149  0.61839668    -0.81900
O14         O  0.31186525  0.48442222  0.65180424    -0.84500
C15         C  0.33284617  0.48860007  0.66404025     1.03200
O16         O  0.35652727  0.49515599  0.65440625    -0.77300
O17         O  0.38255874  0.55150474  0.63913811    -0.77400
C18         C  0.38695242  0.57258200  0.62685967     1.03100
Cr19       Cr  0.34286943  0.53485750  0.59269951     1.93700
Cr20       Cr  0.30716515  0.47710136  0.61793510     1.93200
Cr21       Cr  0.37387735  0.51469858  0.62393049     1.39100
O22         O  0.34119541  0.50853976  0.61155643    -1.22500
O23         O  0.18019735  0.66246310  0.56145087    -0.84800
O24         O  0.21907572  0.71835961  0.57238904    -0.81800
C25         C  0.20321294  0.72845285  0.56870384     0.98700
O26         O  0.18373555  0.72410206  0.58302913    -0.81900
O27         O  0.14099495  0.69483116  0.61627052    -0.84500
C28         C  0.12015844  0.67266969  0.60660518     1.03200
O29         O  0.12377885  0.65306232  0.59914771    -0.77300
O30         O  0.14982232  0.62521932  0.58263922    -0.77500
C31         C  0.16008939  0.63652331  0.56287289     1.03200
O32         O  0.20275517  0.64322204  0.59687967    -0.84800
O33         O  0.23630856  0.69866117  0.61160036    -0.81800
C34         C  0.24515504  0.72400324  0.61813282     0.98700
O35         O  0.22837451  0.73368443  0.61667241    -0.81900
O36         O  0.18483643  0.70053184  0.64791876    -0.84500
C37         C  0.16479698  0.67797468  0.65752710     1.03200
O38         O  0.14656010  0.65714424  0.64506901    -0.77300
O39         O  0.17667241  0.63351253  0.62830936    -0.77400
C40         C  0.19424030  0.63057005  0.61623662     1.03100
Cr41       Cr  0.20771355  0.68062159  0.58691908     1.93700
Cr42       Cr  0.18419159  0.71107781  0.61523665     1.93200
Cr43       Cr  0.15133111  0.64472326  0.61322331     1.39100
O44         O  0.18089148  0.67881785  0.60514617    -1.22500
O45         O  0.50225036  0.85007983  0.56267118    -0.84800
O46         O  0.51979024  0.81222438  0.56968817    -0.81800
C47         C  0.54614501  0.82854730  0.56452446     0.98700
O48         O  0.56296756  0.84804676  0.57850638    -0.81900
O49         O  0.57965094  0.88911020  0.61391698    -0.84500
C50         C  0.57758778  0.90940712  0.60525843     1.03200
O51         O  0.55328117  0.90531736  0.60006234    -0.77300
O52         O  0.49712184  0.87859504  0.58617645    -0.77500
C53         C  0.49704038  0.86983419  0.56568048     1.03200
O54         O  0.46133160  0.82438593  0.59943075    -0.84800
O55         O  0.48428578  0.79113287  0.61007158    -0.81800
C56         C  0.50226268  0.78396099  0.61486574     0.98700
O57         O  0.52925725  0.80171458  0.61200481    -0.81900
O58         O  0.54201680  0.84265003  0.64526468    -0.84500
C59         C  0.53945402  0.86111280  0.65639488     1.03200
O60         O  0.53637729  0.87978599  0.64589906    -0.77300
O61         O  0.47990819  0.84953985  0.63109200    -0.77400
C62         C  0.45815154  0.83252025  0.61915661     1.03100
Cr63       Cr  0.49387707  0.82136536  0.58684494     1.93700
Cr64       Cr  0.55143134  0.84568924  0.61186306     1.93200
Cr65       Cr  0.51709525  0.87625072  0.61511771     1.39100
O66         O  0.52088970  0.84784495  0.60477300    -1.22500
O67         O  0.16509008  0.54004033  0.42474604    -0.84800
O68         O  0.17501488  0.49763733  0.43644646    -0.81800
C69         C  0.17929239  0.47711311  0.43572632     0.98700
O70         O  0.17896279  0.46609007  0.41617041    -0.81900
O71         O  0.12436665  0.44635626  0.39658675    -0.84500
C72         C  0.10396096  0.44820199  0.38814738     1.03200
O73         O  0.10946530  0.46915060  0.37504801    -0.77300
O74         O  0.12312953  0.51034380  0.40847078    -0.77500
C75         C  0.13785252  0.52771212  0.42444089     1.03200
O76         O  0.20853680  0.55894305  0.38914941    -0.84800
O77         O  0.22178750  0.51941826  0.40362747    -0.81800
C78         C  0.22609357  0.51018722  0.38478229     0.98700
O79         O  0.20499184  0.49278686  0.37226282    -0.81900
O80         O  0.15155506  0.46876840  0.35135990    -0.84500
C81         C  0.15524558  0.48936730  0.33845026     1.03200
O82         O  0.15729365  0.51146296  0.34747048    -0.77300
O83         O  0.16725406  0.55354982  0.37923718    -0.77400
C84         C  0.19446532  0.56913742  0.38058386     1.03100
Cr85       Cr  0.19072523  0.52714610  0.41197263     1.93700
Cr86       Cr  0.16477491  0.47061615  0.38463704     1.93200
Cr87       Cr  0.14109845  0.51047085  0.37842403     1.39100
O88         O  0.16555380  0.50276208  0.39169779    -1.22500
O89         O  0.39510284  0.84846782  0.41846633    -0.84800
O90         O  0.33890922  0.82822591  0.42970721    -0.81800
C91         C  0.31308942  0.82167432  0.42846507     0.98700
O92         O  0.30240237  0.82183757  0.40899037    -0.81900
O93         O  0.33353814  0.87822188  0.39401298    -0.84500
C94         C  0.35513050  0.90161544  0.38711087     1.03200
O95         O  0.37357816  0.90142662  0.37377221    -0.77300
O96         O  0.40300274  0.89010845  0.40624333    -0.77500
C97         C  0.40625387  0.87530807  0.42130967     1.03200
O98         O  0.37574689  0.80973482  0.37936670    -0.84800
O99         O  0.31958795  0.78601143  0.39341655    -0.81800
C100        C  0.30501968  0.78196257  0.37518500     0.98700
O101        O  0.30776473  0.80298876  0.36371280    -0.81900
O102        O  0.33432744  0.85907011  0.34722143    -0.84500
C103        C  0.35392712  0.86115124  0.33389461     1.03200
O104        O  0.37571177  0.86190584  0.34240476    -0.77300
O105        O  0.41036150  0.85450045  0.37319003    -0.77400
C106        C  0.40069358  0.82772507  0.37193446     1.03100
Cr107      Cr  0.35726480  0.81996668  0.40385118     1.93700
Cr108      Cr  0.32206134  0.84097080  0.37891045     1.93200
Cr109      Cr  0.38830938  0.87478523  0.37463129     1.39100
O110        O  0.35582433  0.84512405  0.38572604    -1.22500
O111        O  0.46806620  0.63106879  0.42282375    -0.84800
O112        O  0.51297862  0.68613158  0.43326189    -0.81800
C113        C  0.53473293  0.71124893  0.43076499     0.98700
O114        O  0.54463811  0.72043015  0.41051408    -0.81900
O115        O  0.56407784  0.68622251  0.39301166    -0.84500
C116        C  0.56241815  0.66348256  0.38581031     1.03200
O117        O  0.53969835  0.64378203  0.37596037    -0.77300
O118        O  0.49727048  0.61786409  0.41004592    -0.77500
C119        C  0.47915423  0.61585421  0.42492983     1.03200
O120        O  0.45217565  0.65352547  0.38515052    -0.84800
O121        O  0.49299944  0.70851705  0.39908334    -0.81800
C122        C  0.49996635  0.71983289  0.37921031     0.98700
O123        O  0.51624528  0.71529778  0.36659312    -0.81900
O124        O  0.54054851  0.68573596  0.34833265    -0.84500
C125        C  0.51987403  0.66683450  0.33619164     1.03200
O126        O  0.49832398  0.64558924  0.34580666    -0.77300
O127        O  0.45507766  0.61576760  0.37819403    -0.77400
C128        C  0.44042759  0.62781201  0.37831437     1.03100
Cr129      Cr  0.48335544  0.66954376  0.40859348     1.93700
Cr130      Cr  0.53907696  0.69953685  0.38029530     1.93200
Cr131      Cr  0.49840037  0.63332797  0.37824840     1.39100
O132        O  0.50717594  0.66737859  0.38917108    -1.22500
O133        O  0.62259404  0.49705722  0.41707406    -0.84800
O134        O  0.65003848  0.53954484  0.38335645    -0.81800
C135        C  0.66689978  0.56152405  0.39526597     0.98700
O136        O  0.68975747  0.56435489  0.40358874    -0.81900
O137        O  0.72478865  0.54644904  0.42299713    -0.84500
C138        C  0.71441570  0.53497057  0.44261864     1.03200
O139        O  0.68968665  0.51240567  0.44365931    -0.77300
O140        O  0.63514116  0.46796949  0.43133233    -0.77500
C141        C  0.61896486  0.47817423  0.43175308     1.03200
O142        O  0.62346622  0.45676615  0.38586642    -0.84800
O143        O  0.65539989  0.50009325  0.35472960    -0.81800
C144        C  0.67674343  0.52229758  0.34598007     0.98700
O145        O  0.69470188  0.54292010  0.35875234    -0.81900
O146        O  0.72550959  0.52109404  0.37929411    -0.84500
C147        C  0.72969269  0.50462629  0.39191894     1.03200
O148        O  0.71477928  0.49364828  0.41005656    -0.77300
O149        O  0.66047194  0.45294079  0.39449997    -0.77400
C150        C  0.63558543  0.44240237  0.38593596     1.03100
Cr151      Cr  0.64056322  0.49920935  0.38623238     1.93700
Cr152      Cr  0.70617420  0.54126921  0.39171854     1.93200
Cr153      Cr  0.67494799  0.48372937  0.41832873     1.39100
O154        O  0.67395775  0.50815641  0.39879058    -1.22500
O155        O  0.50764846  0.39218675  0.59425847    -0.84800
O156        O  0.46788844  0.36434827  0.63015389    -0.81800
C157        C  0.44523610  0.34529801  0.61992775     0.98700
O158        O  0.44391455  0.32289754  0.61198760    -0.81900
O159        O  0.46512602  0.29019549  0.59217129    -0.84500
C160        C  0.47446440  0.30008747  0.57194241     1.03200
O161        O  0.49583802  0.32548654  0.56975073    -0.77300
O162        O  0.53791681  0.38145705  0.57913621    -0.77500
C163        C  0.52536752  0.39544451  0.57840472     1.03200
O164        O  0.55235995  0.39716882  0.62408727    -0.84800
O165        O  0.51166745  0.36467592  0.65788652    -0.81800
C166        C  0.49087980  0.34293966  0.66786215     0.98700
O167        O  0.47024419  0.32349766  0.65588464    -0.81900
O168        O  0.49571093  0.29626966  0.63540561    -0.84500
C169        C  0.51339675  0.29373075  0.62284256     1.03200
O170        O  0.52050271  0.30559372  0.60312679    -0.77300
O171        O  0.55834709  0.36153271  0.61612208    -0.77400
C172        C  0.56837638  0.38683974  0.62356238     1.03100
Cr173      Cr  0.50919943  0.37694918  0.62572457     1.93700
Cr174      Cr  0.47097120  0.31064973  0.62307080     1.93200
Cr175      Cr  0.52617478  0.34352615  0.59365193     1.39100
O176        O  0.50191066  0.34369829  0.61402764    -1.22500
O177        O  0.52225590  0.14510415  0.41497653    -0.84800
O178        O  0.46608698  0.11442909  0.40020820    -0.81800
C179        C  0.44128556  0.10896805  0.39487266     0.98700
O180        O  0.43752064  0.12810765  0.38609232    -0.81900
O181        O  0.44941181  0.16993437  0.41961481    -0.84500
C182        C  0.46438992  0.18993358  0.43386013     1.03200
O183        O  0.49143024  0.20587281  0.43113689    -0.77300
O184        O  0.51298965  0.17059901  0.43877287    -0.77500
C185        C  0.52105488  0.15300020  0.43554827     1.03200
O186        O  0.53835039  0.17483592  0.37048496    -0.84800
O187        O  0.48226947  0.13938710  0.35464556    -0.81800
C188        C  0.47647961  0.15561560  0.34321387     0.98700
O189        O  0.47330557  0.17392344  0.35384746    -0.81900
O190        O  0.48289878  0.21497116  0.38579361    -0.84500
C191        C  0.50972596  0.23344897  0.38379282     1.03200
O192        O  0.52830373  0.22844134  0.39136015    -0.77300
O193        O  0.55437262  0.19910475  0.40266353    -0.77400
C194        C  0.55927092  0.19322815  0.38262910     1.03100
Cr195      Cr  0.50163913  0.14543674  0.38579082     1.93700
Cr196      Cr  0.46309708  0.17158145  0.38709075     1.93200
Cr197      Cr  0.51971083  0.19893151  0.41460978     1.39100
O198        O  0.49449824  0.17176871  0.39591284    -1.22500
O199        O  0.87374678  0.48894926  0.59551543    -0.84800
O200        O  0.90317084  0.54454940  0.61202401    -0.81800
C201        C  0.90817214  0.56907631  0.61778765     0.98700
O202        O  0.88811761  0.57254381  0.62501973    -0.81900
O203        O  0.84974689  0.56196264  0.58907859    -0.84500
C204        C  0.83135204  0.54751054  0.57359143     1.03200
O205        O  0.81503178  0.52051437  0.57541414    -0.77300
O206        O  0.85040563  0.49890080  0.57015982    -0.77500
C207        C  0.86747173  0.49044066  0.57457480     1.03200
O208        O  0.83984639  0.47127860  0.63809245    -0.84800
O209        O  0.87377853  0.52623737  0.65559623    -0.81800
C210        C  0.85628348  0.53118430  0.66600126     0.98700
O211        O  0.83915836  0.53538654  0.65453382    -0.81900
O212        O  0.80135399  0.52785660  0.61988944    -0.84500
C213        C  0.78228994  0.50114144  0.62061844     1.03200
O214        O  0.78780954  0.48260447  0.61377692    -0.77300
O215        O  0.81800993  0.45645869  0.60484412    -0.77400
C216        C  0.82210454  0.45090749  0.62519943     1.03100
Cr217      Cr  0.87067973  0.50840596  0.62440029     1.93700
Cr218      Cr  0.84479297  0.54711095  0.62143687     1.93200
Cr219      Cr  0.81980448  0.49161297  0.59256957     1.39100
O220        O  0.84529281  0.51601400  0.61274333    -1.22500
O221        O  0.85664996  0.38653693  0.41748975    -0.84800
O222        O  0.88579247  0.36225385  0.39994371    -0.81800
C223        C  0.89065346  0.34383031  0.39172615     0.98700
O224        O  0.87119301  0.32219514  0.38077885    -0.81900
O225        O  0.82843659  0.29014212  0.41412772    -0.84500
C226        C  0.80746238  0.28314870  0.42776023     1.03200
O227        O  0.79043833  0.29193306  0.42405117    -0.77300
O228        O  0.82429181  0.34851549  0.43712226    -0.77500
C229        C  0.84459690  0.37454439  0.43657174     1.03200
O230        O  0.83200116  0.38211587  0.37255980    -0.84800
O231        O  0.86291144  0.36010107  0.35381926    -0.81800
C232        C  0.84584485  0.33903973  0.34091169     0.98700
O233        O  0.82712965  0.31505836  0.34961088    -0.81900
O234        O  0.78450614  0.27810023  0.37987498    -0.84500
C235        C  0.76621138  0.28556467  0.37726774     1.03200
O236        O  0.77179874  0.30984569  0.38442219    -0.77300
O237        O  0.80071730  0.36560540  0.40104773    -0.77400
C238        C  0.81200600  0.38200791  0.38372734     1.03100
Cr239      Cr  0.85715375  0.36986956  0.38642374     1.93700
Cr240      Cr  0.82793859  0.30374607  0.38202909     1.93200
Cr241      Cr  0.79900727  0.32931420  0.41022931     1.39100
O242        O  0.82816417  0.33449061  0.39284069    -1.22500
O243        O  0.62380887  0.15689097  0.59258728    -0.84800
O244        O  0.64323888  0.12406752  0.61209207    -0.81800
C245        C  0.66154742  0.11798337  0.61852117     0.98700
O246        O  0.68551845  0.13722385  0.62698000    -0.81900
O247        O  0.71757725  0.17713761  0.59284766    -0.84500
C248        C  0.72495384  0.19720839  0.57837186     1.03200
O249        O  0.71961247  0.21667912  0.58259305    -0.77300
O250        O  0.66234634  0.18495610  0.57137830    -0.77500
C251        C  0.63581081  0.16608480  0.57285867     1.03200
O252        O  0.63389959  0.18687157  0.63689610    -0.84800
O253        O  0.65112516  0.15205843  0.65638661    -0.81800
C254        C  0.67379630  0.16700867  0.66838171     0.98700
O255        O  0.69790542  0.18320355  0.65849163    -0.81900
O256        O  0.73476570  0.22396268  0.62674022    -0.84500
C257        C  0.72869262  0.24340893  0.62898671     1.03200
O258        O  0.70503579  0.23926516  0.62165080    -0.77300
O259        O  0.64927089  0.21380389  0.60602914    -0.77400
C260        C  0.63516675  0.20678092  0.62479443     1.03100
Cr261      Cr  0.64086679  0.15697975  0.62384800     1.93700
Cr262      Cr  0.70669051  0.18054992  0.62541487     1.93200
Cr263      Cr  0.68360881  0.21143561  0.59695779     1.39100
O264        O  0.67688022  0.18269494  0.61552003    -1.22500
O265        O  0.63473243  0.47523225  0.08217551    -0.84800
O266        O  0.69028202  0.51932169  0.07291242    -0.81800
C267        C  0.71575074  0.54031036  0.07532762     0.98700
O268        O  0.72552183  0.54910836  0.09567511    -0.81900
O269        O  0.69092883  0.56764869  0.11570455    -0.84500
C270        C  0.66856484  0.56580400  0.12432367     1.03200
O271        O  0.64946186  0.54280736  0.13424402    -0.77300
O272        O  0.62260893  0.50360867  0.09894921    -0.77500
C273        C  0.61993017  0.48696526  0.08261589     1.03200
O274        O  0.65687665  0.45511861  0.11763063    -0.84800
O275        O  0.71211872  0.49549137  0.10532095    -0.81800
C276        C  0.72360369  0.50216445  0.12519141     0.98700
O277        O  0.71974225  0.51833560  0.13842294    -0.81900
O278        O  0.69087921  0.54163134  0.15925033    -0.84500
C279        C  0.67140644  0.52077214  0.17110056     1.03200
O280        O  0.65100056  0.49918747  0.16100190    -0.77300
O281        O  0.62004625  0.45887067  0.12740183    -0.77400
C282        C  0.63161203  0.44396304  0.12544709     1.03100
Cr283      Cr  0.67336551  0.48806268  0.09608982     1.93700
Cr284      Cr  0.70443969  0.54201533  0.12650440     1.93200
Cr285      Cr  0.63837197  0.50184391  0.12950754     1.39100
O286        O  0.67199627  0.51074002  0.11728709    -1.22500
O287        O  0.51882570  0.36740642  0.94081066    -0.84800
O288        O  0.50159582  0.31103722  0.93454993    -0.81800
C289        C  0.47435391  0.29745362  0.93669964     0.98700
O290        O  0.45904727  0.29915101  0.92103082    -0.81900
O291        O  0.44517632  0.32526653  0.88582449    -0.84500
C292        C  0.44590223  0.34698134  0.89480499     1.03200
O293        O  0.46946233  0.36821045  0.90183512    -0.77300
O294        O  0.52563310  0.40189259  0.91728327    -0.77500
C295        C  0.52554936  0.39299513  0.93766334     1.03200
O296        O  0.56204615  0.38531480  0.90532699    -0.84800
O297        O  0.54046791  0.32855403  0.89538641    -0.81800
C298        C  0.52362777  0.30265159  0.88965435     0.98700
O299        O  0.49648626  0.29204417  0.88949178    -0.81900
O300        O  0.48598808  0.32164717  0.85558859    -0.84500
C301        C  0.48730565  0.34256588  0.84489035     1.03200
O302        O  0.48897632  0.36315818  0.85650410    -0.77300
O303        O  0.54470017  0.39178565  0.87321904    -0.77400
C304        C  0.56599479  0.39698819  0.88554041     1.03100
Cr305      Cr  0.52872934  0.34787382  0.91749376     1.93700
Cr306      Cr  0.47381456  0.31211631  0.88863725     1.93200
Cr307      Cr  0.50674546  0.37867621  0.88797791     1.39100
O308        O  0.50297569  0.34612093  0.89802563    -1.22500
O309        O  0.62924228  0.16988075  0.93111225    -0.84800
O310        O  0.68330301  0.18180930  0.94191488    -0.81800
C311        C  0.70822393  0.18578457  0.94010983     0.98700
O312        O  0.71833344  0.18550055  0.92026149    -0.81900
O313        O  0.68218500  0.13088784  0.90091706    -0.84500
C314        C  0.65926728  0.10983493  0.89260810     1.03200
O315        O  0.64197967  0.11417030  0.88125493    -0.77300
O316        O  0.61546410  0.12759397  0.91582853    -0.77500
C317        C  0.61363971  0.14264795  0.93166886     1.03200
O318        O  0.65377239  0.21216649  0.89462704    -0.84800
O319        O  0.70821466  0.22739155  0.90861049    -0.81800
C320        C  0.72098578  0.23176383  0.88933017     0.98700
O321        O  0.71627738  0.21079533  0.87665879    -0.81900
O322        O  0.68533767  0.15707706  0.85644613    -0.84500
C323        C  0.66751230  0.15961895  0.84413132     1.03200
O324        O  0.64700097  0.16049935  0.85350407    -0.77300
O325        O  0.61590126  0.16993038  0.88628974    -0.77400
C326        C  0.62831561  0.19708480  0.88715205     1.03100
Cr327      Cr  0.66846540  0.19584391  0.91750517     1.93700
Cr328      Cr  0.69820945  0.17089529  0.88924247     1.93200
Cr329      Cr  0.63268131  0.14490816  0.88503902     1.39100
O330        O  0.66643375  0.17039966  0.89739528    -1.22500
O331        O  0.83739854  0.47039389  0.92755195    -0.84800
O332        O  0.82482855  0.51136470  0.93882426    -0.81800
C333        C  0.82188043  0.53276899  0.93745754     0.98700
O334        O  0.82381105  0.54421525  0.91779094    -0.81900
O335        O  0.87926516  0.56470384  0.89899718    -0.84500
C336        C  0.89992098  0.56332408  0.89029003     1.03200
O337        O  0.89468165  0.54173626  0.87816566    -0.77300
O338        O  0.88023386  0.50110951  0.91274304    -0.77500
C339        C  0.86467748  0.48332252  0.92833563     1.03200
O340        O  0.79619601  0.45118201  0.89005659    -0.84800
O341        O  0.78108515  0.48976296  0.90411597    -0.81800
C342        C  0.77759580  0.49879196  0.88493950     0.98700
O343        O  0.79926963  0.51739001  0.87347280    -0.81900
O344        O  0.85333025  0.54151011  0.85390066    -0.84500
C345        C  0.85001122  0.52078802  0.84132631     1.03200
O346        O  0.84831226  0.49895005  0.85046707    -0.77300
O347        O  0.83843122  0.45750402  0.88274985    -0.77400
C348        C  0.81127516  0.44162836  0.88218730     1.03100
Cr349      Cr  0.81188785  0.48258880  0.91364473     1.93700
Cr350      Cr  0.83902165  0.53978714  0.88672805     1.93200
Cr351      Cr  0.86354860  0.50049496  0.88191367     1.39100
O352        O  0.83823583  0.50777262  0.89428430    -1.22500
O353        O  0.51221961  0.17252356  0.07057691    -0.84800
O354        O  0.49623936  0.21091930  0.08388470    -0.81800
C355        C  0.46999810  0.19478718  0.07874653     0.98700
O356        O  0.45384996  0.17369498  0.09192472    -0.81900
O357        O  0.43852305  0.12966063  0.12469451    -0.84500
C358        C  0.44096973  0.10947672  0.11660006     1.03200
O359        O  0.46504851  0.11344520  0.11062547    -0.77300
O360        O  0.51860158  0.14227384  0.09095396    -0.77500
C361        C  0.51660871  0.15194480  0.07141704     1.03200
O362        O  0.55623494  0.19617240  0.10443660    -0.84800
O363        O  0.53352385  0.22717354  0.12237784    -0.81800
C364        C  0.51567165  0.23339783  0.12997390     0.98700
O365        O  0.48861242  0.21583978  0.12784448    -0.81900
O366        O  0.47564648  0.17143355  0.15804067    -0.84500
C367        C  0.48130150  0.15394479  0.16735925     1.03200
O368        O  0.48783348  0.13879565  0.15517530    -0.77300
O369        O  0.54191626  0.17025117  0.13565710    -0.77400
C370        C  0.56223183  0.18776850  0.12261904     1.03100
Cr371      Cr  0.52250055  0.19944769  0.09682524     1.93700
Cr372      Cr  0.46642205  0.17249883  0.12475599     1.93200
Cr373      Cr  0.50281679  0.14342241  0.12255671     1.39100
O374        O  0.49697924  0.17147350  0.11495318    -1.22500
O375        O  0.82673419  0.34948216  0.06985367    -0.84800
O376        O  0.79509052  0.29296110  0.08338834    -0.81800
C377        C  0.81339878  0.28574104  0.07987270     0.98700
O378        O  0.83495350  0.29484696  0.09301959    -0.81900
O379        O  0.87691626  0.32982127  0.12533148    -0.84500
C380        C  0.89517250  0.35263044  0.11468414     1.03200
O381        O  0.88768429  0.36928048  0.10689427    -0.77300
O382        O  0.85490603  0.38914128  0.08947536    -0.77500
C383        C  0.84478149  0.37616887  0.07023826     1.03200
O384        O  0.80041326  0.36494853  0.10500849    -0.84800
O385        O  0.77451014  0.31015655  0.12198132    -0.81800
C386        C  0.77075011  0.28719924  0.13050730     0.98700
O387        O  0.78976805  0.28053232  0.12777282    -0.81900
O388        O  0.83121994  0.31861240  0.15715746    -0.84500
C389        C  0.84903343  0.34265524  0.16597620     1.03200
O390        O  0.86465665  0.36453947  0.15325246    -0.77300
O391        O  0.82834901  0.38062371  0.13524868    -0.77400
C392        C  0.80866185  0.37994973  0.12335352     1.03100
Cr393      Cr  0.80131490  0.32984173  0.09637223     1.93700
Cr394      Cr  0.83316742  0.30807504  0.12489606     1.93200
Cr395      Cr  0.85701993  0.37323473  0.12078869     1.39100
O396        O  0.83068931  0.33713894  0.11407483    -1.22500
O397        O  0.39204964  0.53190306  0.90891338    -0.84800
O398        O  0.36201787  0.47507667  0.89717775    -0.81800
C399        C  0.34219229  0.45018039  0.89140927     0.98700
O400        O  0.31830990  0.44586022  0.88392335    -0.81900
O401        O  0.29268429  0.46195769  0.91870094    -0.84500
C402        C  0.28964249  0.47848336  0.93228755     1.03200
O403        O  0.30013440  0.50461811  0.92697562    -0.77300
O404        O  0.35802551  0.52683311  0.93272607    -0.77500
C405        C  0.38344330  0.53284814  0.92919286     1.03200
O406        O  0.37871623  0.54511306  0.86383525    -0.84800
O407        O  0.35252820  0.48838735  0.85075732    -0.81800
C408        C  0.32969881  0.48248478  0.84010836     0.98700
O409        O  0.30785753  0.47892299  0.85102579    -0.81900
O410        O  0.27851553  0.49106955  0.88395912    -0.84500
C411        C  0.28711897  0.51740332  0.88028794     1.03200
O412        O  0.31277171  0.53699621  0.88476727    -0.77300
O413        O  0.37081467  0.56403155  0.89421755    -0.77400
C414        C  0.38297306  0.56695130  0.87482974     1.03100
Cr415      Cr  0.36858265  0.50952544  0.88094381     1.93700
Cr416      Cr  0.30186665  0.47177282  0.88498547     1.93200
Cr417      Cr  0.33537003  0.53102467  0.90829308     1.39100
O418        O  0.33525540  0.50404415  0.89126992    -1.22500
O419        O  0.14199611  0.54183130  0.09123806    -0.84800
O420        O  0.11227142  0.48497997  0.10575393    -0.81800
C421        C  0.10755912  0.46035358  0.11080827     0.98700
O422        O  0.12721692  0.45719816  0.11918060    -0.81900
O423        O  0.16735004  0.46957693  0.08395926    -0.84500
C424        C  0.18627962  0.48482067  0.06889833     1.03200
O425        O  0.20246509  0.51171862  0.07163069    -0.77300
O426        O  0.16786197  0.53427014  0.06624802    -0.77500
C427        C  0.15009582  0.54190909  0.07048133     1.03200
O428        O  0.17340327  0.55744544  0.13510887    -0.84800
O429        O  0.13899669  0.50134285  0.15071931    -0.81800
C430        C  0.15603006  0.49632556  0.16168958     0.98700
O431        O  0.17385244  0.49269324  0.15041074    -0.81900
O432        O  0.21358383  0.50181935  0.11644156    -0.84500
C433        C  0.23242094  0.52840497  0.11825871     1.03200
O434        O  0.22729347  0.54723790  0.11171413    -0.77300
O435        O  0.19812037  0.57412980  0.10304786    -0.77400
C436        C  0.19272105  0.57838479  0.12344865     1.03100
Cr437      Cr  0.14368397  0.52082568  0.11982841     1.93700
Cr438      Cr  0.17034180  0.48276824  0.11681219     1.93200
Cr439      Cr  0.19680175  0.53970834  0.08961253     1.39100
O440        O  0.17008162  0.51418096  0.10864362    -1.22500
O441        O  0.12506124  0.62654238  0.90791837    -0.84800
O442        O  0.11357836  0.65286601  0.87146398    -0.81800
C443        C  0.11174622  0.67225536  0.88195043     0.98700
O444        O  0.13407761  0.69400054  0.89006943    -0.81900
O445        O  0.18880967  0.72666321  0.90913422    -0.84500
C446        C  0.18964688  0.71728987  0.92909521     1.03200
O447        O  0.18504405  0.69218782  0.93124972    -0.77300
O448        O  0.16677868  0.63594652  0.92163567    -0.77500
C449        C  0.13958550  0.62336141  0.92343117     1.03200
O450        O  0.16330108  0.61923296  0.87770544    -0.84800
O451        O  0.15630089  0.65109464  0.84389612    -0.81800
C452        C  0.16014351  0.67346802  0.83387447     0.98700
O453        O  0.15973730  0.69312742  0.84553245    -0.81900
O454        O  0.21305062  0.72265613  0.86583462    -0.84500
C455        C  0.23379862  0.72608472  0.87802709     1.03200
O456        O  0.22885407  0.71161051  0.89648189    -0.77300
O457        O  0.20729818  0.65512166  0.88356952    -0.77400
C458        C  0.19025446  0.62934598  0.87732815     1.03100
Cr459      Cr  0.14167261  0.64004827  0.87608842     1.93700
Cr460      Cr  0.17340971  0.70645384  0.87835309     1.93200
Cr461      Cr  0.19504208  0.67369136  0.90661231     1.39100
O462        O  0.17009117  0.67354571  0.88700773    -1.22500
O463        O  0.48018673  0.86098656  0.90363783    -0.84800
O464        O  0.53693517  0.89186674  0.89171008    -0.81800
C465        C  0.56191652  0.89790762  0.88646271     0.98700
O466        O  0.56576405  0.87936926  0.87673956    -0.81900
O467        O  0.54824505  0.83452353  0.90966591    -0.84500
C468        C  0.53126338  0.81266044  0.92191423     1.03200
O469        O  0.50548546  0.79560979  0.91534439    -0.77300
O470        O  0.48016505  0.82672058  0.92387845    -0.77500
C471        C  0.47609491  0.84734437  0.92248319     1.03200
O472        O  0.46600113  0.83832298  0.85719440    -0.84800
O473        O  0.52285791  0.87055576  0.84384388    -0.81800
C474        C  0.52834191  0.85424430  0.83202988     0.98700
O475        O  0.53277094  0.83642434  0.84228518    -0.81900
O476        O  0.52155535  0.79327858  0.87277445    -0.84500
C477        C  0.49594869  0.77477425  0.86683094     1.03200
O478        O  0.47575642  0.77899350  0.87103232    -0.77300
O479        O  0.44593400  0.80485722  0.88375136    -0.77400
C480        C  0.44377591  0.81770874  0.86643267     1.03100
Cr481      Cr  0.50210297  0.86322377  0.87470390     1.93700
Cr482      Cr  0.53967666  0.83603189  0.87599091     1.93200
Cr483      Cr  0.47909207  0.80388384  0.89721739     1.39100
O484        O  0.50696069  0.83461237  0.88274262    -1.22500
O485        O  0.39976734  0.88238215  0.08591894    -0.84800
O486        O  0.37673859  0.90227074  0.11799496    -0.81800
C487        C  0.35815070  0.90424938  0.10635673     0.98700
O488        O  0.33500133  0.88182125  0.10008361    -0.81900
O489        O  0.29764770  0.82437897  0.08758155    -0.84500
C490        C  0.30600662  0.82049745  0.06807513     1.03200
O491        O  0.33052930  0.82343594  0.06628544    -0.77300
O492        O  0.38584698  0.83793405  0.07614828    -0.77500
C493        C  0.40074815  0.86479502  0.07233463     1.03200
O494        O  0.40317568  0.84634860  0.12035312    -0.84800
O495        O  0.37466453  0.86170831  0.15089458    -0.81800
C496        C  0.35486912  0.86415110  0.15975965     0.98700
O497        O  0.33601537  0.86455089  0.14718351    -0.81900
O498        O  0.30297274  0.80775524  0.13393595    -0.84500
C499        C  0.29688330  0.78456330  0.12408783     1.03200
O500        O  0.30890571  0.78484381  0.10515437    -0.77300
O501        O  0.36475005  0.80321359  0.11744628    -0.77400
C502        C  0.39095441  0.81935537  0.12292852     1.03100
Cr503      Cr  0.38600497  0.87119860  0.11818611     1.93700
Cr504      Cr  0.32025746  0.84464596  0.11654123     1.93200
Cr505      Cr  0.34777657  0.81455345  0.09251268     1.39100
O506        O  0.35130474  0.84351943  0.10897278    -1.22500
O507        O  0.49536373  0.62164006  0.09046243    -0.84800
O508        O  0.54029084  0.64791734  0.12171770    -0.81800
C509        C  0.56231939  0.66517220  0.10977422     0.98700
O510        O  0.56509201  0.68805084  0.10167110    -0.81900
O511        O  0.54699204  0.72349659  0.08323393    -0.84500
C512        C  0.53422807  0.71240085  0.06407385     1.03200
O513        O  0.51119791  0.68804480  0.06413517    -0.77300
O514        O  0.46616647  0.63523531  0.07837923    -0.77500
C515        C  0.47601900  0.61887604  0.07676235     1.03200
O516        O  0.45744308  0.62456593  0.12375948    -0.84800
O517        O  0.50349607  0.65518551  0.15294092    -0.81800
C518        C  0.52672233  0.67577147  0.16114029     0.98700
O519        O  0.54660414  0.69356521  0.14759914    -0.81900
O520        O  0.52423070  0.72409276  0.12907102    -0.84500
C521        C  0.50615157  0.72753692  0.11829237     1.03200
O522        O  0.49664250  0.71555244  0.09890467    -0.77300
O523        O  0.45588189  0.66292627  0.11615325    -0.77400
C524        C  0.44415354  0.63786696  0.12447539     1.03100
Cr525      Cr  0.49999446  0.63990200  0.12132489     1.93700
Cr526      Cr  0.54336420  0.70504430  0.11483369     1.93200
Cr527      Cr  0.48443075  0.67528392  0.09075158     1.39100
O528        O  0.50948086  0.67337597  0.10884059    -1.22500
C529        C  0.45088497  0.80823613  0.14460214    -0.11300
C530        C  0.44268790  0.78197041  0.13384530     0.11300
C531        C  0.41564018  0.76616510  0.12250973    -0.03100
C532        C  0.39874197  0.77861098  0.12059671    -0.05900
C533        C  0.40804471  0.80623252  0.12949702    -0.16600
C534        C  0.43406206  0.82085061  0.14262982     0.02300
C535        C  0.46368405  0.77243805  0.13310267     0.12200
C536        C  0.40507201  0.73667458  0.11185931     0.62900
H537        H  0.37864284  0.76728498  0.11103414     0.12300
C538        C  0.44435041  0.84954960  0.15452795     0.55000
H539        H  0.47135692  0.81943094  0.15368663     0.08100
C540        C  0.48562592  0.78286545  0.11591922    -0.05700
C541        C  0.50134694  0.76922485  0.11332008    -0.06500
C542        C  0.49588223  0.74584955  0.12736581    -0.16100
C543        C  0.47561286  0.73710865  0.14594500    -0.01700
C544        C  0.46009362  0.75098703  0.14858625    -0.09200
C545        C  0.49168650  0.80760439  0.09989943     0.65100
H546        H  0.51692836  0.77558145  0.09930466     0.10500
C547        C  0.46793773  0.71251132  0.16269149     0.63500
H548        H  0.44371793  0.74382086  0.16206783     0.07900
F549        F  0.45419373  0.87127984  0.13813809    -0.19600
F550        F  0.46682706  0.85672243  0.16976723    -0.15800
F551        F  0.42191600  0.84810330  0.16716109    -0.19300
F552        F  0.40230506  0.71760336  0.12898378    -0.22700
F553        F  0.42452280  0.73873567  0.09524347    -0.24200
F554        F  0.37838596  0.72532513  0.10129331    -0.18100
F555        F  0.47313796  0.72307458  0.18518899    -0.20600
F556        F  0.48342315  0.69935160  0.15907713    -0.21800
F557        F  0.43886654  0.69171305  0.16059839    -0.19000
F558        F  0.51329894  0.81365112  0.08393965    -0.19100
F559        F  0.50052724  0.83222711  0.11290021    -0.22900
F560        F  0.46700762  0.80081407  0.08771553    -0.24500
C561        C  0.53457213  0.79068923  0.98409441    -0.11300
C562        C  0.55361816  0.78082876  0.98178078     0.11300
C563        C  0.56822823  0.78481577  0.96031557    -0.03100
C564        C  0.56161573  0.79685760  0.94133306    -0.05900
C565        C  0.54124374  0.80520992  0.94337097    -0.16600
C566        C  0.52832862  0.80306591  0.96537144     0.02300
C567        C  0.55564828  0.76463444  0.00189583     0.12200
C568        C  0.59116164  0.77710343  0.95770430     0.62900
H569        H  0.57153347  0.79888302  0.92452186     0.12300
C570        C  0.50743755  0.81315214  0.96908774     0.55000
H571        H  0.52375278  0.78762599  0.00064401     0.08100
C572        C  0.56635932  0.77756044  0.02393711    -0.05700
C573        C  0.56026283  0.75971774  0.04351597    -0.06500
C574        C  0.54422646  0.72939974  0.04191635    -0.16100
C575        C  0.53566554  0.71655261  0.01945906    -0.01700
C576        C  0.54099900  0.73446790  0.00003224    -0.09200
C577        C  0.58314952  0.80991827  0.02802526     0.65100
H578        H  0.56712270  0.76977715  0.06046106     0.10500
C579        C  0.52056789  0.68413533  0.01564316     0.63500
H580        H  0.53212269  0.72479995  0.98328283     0.07900
F581        F  0.50146047  0.81384207  0.99242723    -0.19600
F582        F  0.48175439  0.79441327  0.95801921    -0.15800
F583        F  0.51915674  0.84073853  0.96029951    -0.19300
F584        F  0.57926301  0.74787731  0.96105569    -0.22700
F585        F  0.61264748  0.79219569  0.97398146    -0.24200
F586        F  0.60374703  0.78404659  0.93583378    -0.18100
F587        F  0.49225859  0.67048480  0.02338875    -0.20600
F588        F  0.53512128  0.67341979  0.02739539    -0.21800
F589        F  0.51999879  0.67741767  0.99234099    -0.19000
F590        F  0.60809617  0.81775444  0.04026588    -0.19100
F591        F  0.56637513  0.81710236  0.04103970    -0.22900
F592        F  0.59124625  0.82573186  0.00765004    -0.24500
C593        C  0.43266904  0.84339247  0.97529659    -0.11300
C594        C  0.44996621  0.87134029  0.98425984     0.11300
C595        C  0.47550659  0.89186947  0.97245748    -0.03100
C596        C  0.48305960  0.88337350  0.95188517    -0.05900
C597        C  0.46594760  0.85525729  0.94318650    -0.16600
C598        C  0.43985058  0.83508707  0.95455044     0.02300
C599        C  0.44134783  0.87718975  0.00698788     0.12200
C600        C  0.49440115  0.92254504  0.98135879     0.62900
H601        H  0.50256896  0.89849540  0.94254430     0.12300
C602        C  0.41906625  0.80542519  0.94435064     0.55000
H603        H  0.41344320  0.82801165  0.98486453     0.08100
C604        C  0.41724641  0.88042066  0.00931049    -0.05700
C605        C  0.40643476  0.87956778  0.03168552    -0.06500
C606        C  0.41853482  0.87479282  0.05128338    -0.16100
C607        C  0.44384673  0.87371284  0.04918453    -0.01700
C608        C  0.45485414  0.87481040  0.02685457    -0.09200
C609        C  0.40164095  0.88250265  0.98827198     0.65100
H610        H  0.38687505  0.88004027  0.03386753     0.10500
C611        C  0.45866164  0.87085420  0.07042586     0.63500
H612        H  0.47309724  0.87210474  0.02461651     0.07900
F613        F  0.39334508  0.79089846  0.95670704    -0.19600
F614        F  0.43127592  0.78870243  0.94465798    -0.15800
F615        F  0.41258963  0.80833053  0.92168080    -0.19300
F616        F  0.50398638  0.92247774  0.00355551    -0.22700
F617        F  0.47868912  0.93587566  0.98177821    -0.24200
F618        F  0.51845709  0.93872916  0.96736783    -0.18100
F619        F  0.44051891  0.84493326  0.08154087    -0.20600
F620        F  0.46561637  0.89330276  0.08561008    -0.21800
F621        F  0.48391130  0.87183453  0.06460941    -0.19000
F622        F  0.38147061  0.88952930  0.99456997    -0.19100
F623        F  0.38731536  0.85632711  0.97677681    -0.22900
F624        F  0.42119663  0.90354806  0.97322679    -0.24500
C625        C  0.24362512  0.79917737  0.02555729    -0.11300
C626        C  0.24727160  0.78107107  0.01047813     0.11300
C627        C  0.27146563  0.77810772  0.01308151    -0.03100
C628        C  0.29012953  0.79180656  0.03189926    -0.05900
C629        C  0.28606000  0.80908126  0.04776359    -0.16600
C630        C  0.26289953  0.81366825  0.04410625     0.02300
C631        C  0.22656566  0.76648599  0.99113825     0.12200
C632        C  0.27780229  0.76082825  0.99585200     0.62900
H633        H  0.30797857  0.78862775  0.03453959     0.12300
C634        C  0.25892188  0.83433389  0.05905824     0.55000
H635        H  0.22543630  0.80177973  0.02267515     0.08100
C636        C  0.20360510  0.73742854  0.99269875    -0.05700
C637        C  0.19032068  0.72254290  0.97201779    -0.06500
C638        C  0.19869235  0.73618187  0.95012165    -0.16100
C639        C  0.21866764  0.76657624  0.94924966    -0.01700
C640        C  0.23244814  0.78110153  0.96993732    -0.09200
C641        C  0.19337520  0.72240634  0.01609646     0.65100
H642        H  0.17403461  0.69972836  0.97274075     0.10500
C643        C  0.22688182  0.78363212  0.92671343     0.63500
H644        H  0.24947559  0.80367792  0.96951932     0.07900
F645        F  0.24946487  0.82279685  0.08099450    -0.19600
F646        F  0.23873689  0.83964299  0.04966984    -0.15800
F647        F  0.28486037  0.86047456  0.06077890    -0.19300
F648        F  0.28133515  0.77231534  0.97380839    -0.22700
F649        F  0.25530128  0.73234853  0.99554318    -0.24200
F650        F  0.30281302  0.76131040  0.00141970    -0.18100
F651        F  0.24561254  0.81290490  0.93040298    -0.20600
F652        F  0.20233855  0.78003934  0.91622555    -0.21800
F653        F  0.24045743  0.77436379  0.91192040    -0.19000
F654        F  0.17076869  0.69407490  0.01373893    -0.19100
F655        F  0.18386618  0.73686812  0.02958115    -0.22900
F656        F  0.21560503  0.72231343  0.02759367    -0.24500
C657        C  0.37466606  0.81691418  0.85573170    -0.11300
C658        C  0.35480179  0.78714697  0.85649932     0.11300
C659        C  0.36460508  0.76775577  0.85519496    -0.03100
C660        C  0.39444784  0.77893977  0.85640711    -0.05900
C661        C  0.41444833  0.80872142  0.85825949    -0.16600
C662        C  0.40463205  0.82825236  0.85668295     0.02300
C663        C  0.32427927  0.77672692  0.86208772     0.12200
C664        C  0.34347946  0.73540815  0.85318236     0.62900
H665        H  0.40233632  0.76437534  0.85721198     0.12300
C666        C  0.42523524  0.86074249  0.85754324     0.55000
H667        H  0.36635683  0.83114215  0.85608973     0.08100
C668        C  0.31466682  0.77227202  0.88542506    -0.05700
C669        C  0.28484521  0.75710002  0.88974682    -0.06500
C670        C  0.26451320  0.74713496  0.87158756    -0.16100
C671        C  0.27455824  0.75573674  0.84837632    -0.01700
C672        C  0.30452950  0.76984375  0.84399812    -0.09200
C673        C  0.33580605  0.78258904  0.90565237     0.65100
H674        H  0.27717471  0.75201362  0.90751848     0.10500
C675        C  0.25419705  0.75010626  0.82831502     0.63500
H676        H  0.31279565  0.77488519  0.82637813     0.07900
F677        F  0.44119336  0.86850206  0.87778829    -0.19600
F678        F  0.41071673  0.87534961  0.85686928    -0.15800
F679        F  0.44365402  0.86958844  0.83864424    -0.19300
F680        F  0.32712093  0.72964027  0.83328393    -0.22700
F681        F  0.32522071  0.72521530  0.87225204    -0.24200
F682        F  0.35759023  0.72043476  0.85180961    -0.18100
F683        F  0.26890341  0.76068075  0.80748420    -0.20600
F684        F  0.23904979  0.76360450  0.83262559    -0.21800
F685        F  0.23506786  0.72084908  0.82569173    -0.19000
F686        F  0.32189121  0.77777654  0.92687767    -0.19100
F687        F  0.35549732  0.81190991  0.90369728    -0.22900
F688        F  0.35053795  0.76824192  0.90568686    -0.24500
C689        C  0.15106310  0.58686115  0.01963943    -0.11300
C690        C  0.12286718  0.56982523  0.01103551     0.11300
C691        C  0.10282080  0.54400159  0.02282089    -0.03100
C692        C  0.11189959  0.53630950  0.04310379    -0.05900
C693        C  0.14052880  0.55290632  0.05109745    -0.16600
C694        C  0.16031142  0.57893450  0.03945383     0.02300
C695        C  0.11708789  0.57861598  0.98813943     0.12200
C696        C  0.07248003  0.52418152  0.01354978     0.62900
H697        H  0.09706873  0.51658679  0.05226054     0.12300
C698        C  0.19102493  0.59860308  0.04810140     0.55000
H699        H  0.16615090  0.60626438  0.01016264     0.08100
C700        C  0.11533721  0.60358860  0.98561695    -0.05700
C701        C  0.11997229  0.61638627  0.96342532    -0.06500
C702        C  0.12574001  0.60464205  0.94394719    -0.16100
C703        C  0.12417521  0.57799083  0.94607412    -0.01700
C704        C  0.12016684  0.56553350  0.96823624    -0.09200
C705        C  0.10936272  0.61702278  0.00635310     0.65100
H706        H  0.12112588  0.63674432  0.96143532     0.10500
C707        C  0.12769029  0.56335011  0.92500555     0.63500
H708        H  0.12168616  0.54662238  0.97041438     0.07900
F709        F  0.20617689  0.62339098  0.03479283    -0.19600
F710        F  0.20592470  0.58443812  0.04728387    -0.15800
F711        F  0.19029715  0.60683522  0.07070906    -0.19300
F712        F  0.07377461  0.51250783  0.99256583    -0.22700
F713        F  0.05895699  0.53942270  0.01025574    -0.24200
F714        F  0.05570378  0.50167709  0.02871166    -0.18100
F715        F  0.15540616  0.57993037  0.91617252    -0.20600
F716        F  0.10800910  0.55993322  0.90818621    -0.21800
F717        F  0.12278297  0.53636136  0.93037637    -0.19000
F718        F  0.10680372  0.64003928  0.99982074    -0.19100
F719        F  0.13148987  0.62693931  0.02234746    -0.22900
F720        F  0.08373203  0.59665485  0.01687561    -0.24500
C721        C  0.23206049  0.70919970  0.13053620    -0.11300
C722        C  0.24231364  0.69797125  0.14720313     0.11300
C723        C  0.26822065  0.71689127  0.15936526    -0.03100
C724        C  0.28440333  0.74615743  0.15278258    -0.05900
C725        C  0.27556421  0.75648302  0.13432891    -0.16600
C726        C  0.24839407  0.73828530  0.12379153     0.02300
C727        C  0.23067631  0.66654422  0.14580657     0.12200
C728        C  0.27939932  0.70593819  0.17836945     0.62900
H729        H  0.30518067  0.76065191  0.16073288     0.12300
C730        C  0.23745513  0.74924182  0.10466049     0.55000
H731        H  0.21257911  0.69437337  0.12108432     0.08100
C732        C  0.20290609  0.64506292  0.15385079    -0.05700
C733        C  0.19193284  0.61611997  0.14733088    -0.06500
C734        C  0.20757394  0.60840932  0.13260971    -0.16100
C735        C  0.23616974  0.63004195  0.12572166    -0.01700
C736        C  0.24685143  0.65864624  0.13231617    -0.09200
C737        C  0.18475133  0.65275628  0.16865836     0.65100
H738        H  0.17032679  0.59951384  0.15265802     0.10500
C739        C  0.25592592  0.62366480  0.11163056     0.63500
H740        H  0.26778155  0.67565377  0.12598953     0.07900
F741        F  0.20907671  0.72913816  0.09883709    -0.19600
F742        F  0.25434473  0.75527669  0.08496566    -0.15800
F743        F  0.23870431  0.77406140  0.11200603    -0.19300
F744        F  0.28724602  0.68755739  0.16917317    -0.22700
F745        F  0.25808839  0.69125546  0.19492496    -0.24200
F746        F  0.30334687  0.72834565  0.18936824    -0.18100
F747        F  0.24604541  0.61632311  0.08907673    -0.20600
F748        F  0.25714595  0.60152827  0.12194628    -0.21800
F749        F  0.28397695  0.64724427  0.11054529    -0.19000
F750        F  0.15935757  0.62840375  0.17603740    -0.19100
F751        F  0.17755936  0.66965115  0.15604381    -0.22900
F752        F  0.20013620  0.66783552  0.18812155    -0.24500
C753        C  0.30318825  0.56974483  0.15011664    -0.11300
C754        C  0.32152610  0.56908539  0.13335152     0.11300
C755        C  0.30983979  0.55094705  0.11364876    -0.03100
C756        C  0.27976006  0.53542321  0.11059513    -0.05900
C757        C  0.26159739  0.53809204  0.12634716    -0.16600
C758        C  0.27318242  0.55464263  0.14689445     0.02300
C759        C  0.35291527  0.58953175  0.13559382     0.12200
C760        C  0.32916785  0.54897895  0.09553034     0.62900
H761        H  0.27034129  0.52266193  0.09501339     0.12300
C762        C  0.25525387  0.55768098  0.16567646     0.55000
H763        H  0.31254141  0.58334690  0.16532182     0.08100
C764        C  0.36628467  0.61744211  0.12582532    -0.05700
C765        C  0.39651056  0.63352800  0.12387767    -0.06500
C766        C  0.41348389  0.62286043  0.13215696    -0.16100
C767        C  0.40001744  0.59696639  0.14544247    -0.01700
C768        C  0.36965684  0.58026415  0.14635706    -0.09200
C769        C  0.34858193  0.62982808  0.11718911     0.65100
H770        H  0.40689807  0.65401300  0.11484865     0.10500
C771        C  0.41716133  0.58688737  0.15880211     0.63500
H772        H  0.35873373  0.55930895  0.15471758     0.07900
F773        F  0.26326462  0.58627798  0.16738075    -0.19600
F774        F  0.26045721  0.54907563  0.18675511    -0.15800
F775        F  0.22590673  0.54124522  0.16157042    -0.19300
F776        F  0.34519385  0.53899154  0.10584425    -0.22700
F777        F  0.34776535  0.57583307  0.08592421    -0.24200
F778        F  0.31331330  0.53032041  0.07763196    -0.18100
F779        F  0.40015447  0.56638717  0.17533998    -0.20600
F780        F  0.43989978  0.60996195  0.17031138    -0.21800
F781        F  0.42771525  0.57470456  0.14378666    -0.19000
F782        F  0.36593343  0.65734840  0.10821901    -0.19100
F783        F  0.33282110  0.63134539  0.13545808    -0.22900
F784        F  0.32974305  0.61254973  0.09993207    -0.24500
C785        C  0.26509605  0.47371978  0.99472543    -0.11300
C786        C  0.23492818  0.45651494  0.99244759     0.11300
C787        C  0.22311245  0.44347977  0.97056844    -0.03100
C788        C  0.24193877  0.44948497  0.95157450    -0.05900
C789        C  0.27198521  0.46762664  0.95378562    -0.16600
C790        C  0.28387469  0.47900400  0.97594148     0.02300
C791        C  0.21721745  0.45791811  0.01174988     0.12200
C792        C  0.19095804  0.42443152  0.96589948     0.62900
H793        H  0.23293908  0.44107278  0.93452807     0.12300
C794        C  0.31626339  0.49771355  0.97965139     0.55000
H795        H  0.27394788  0.48487809  0.01101301     0.08100
C796        C  0.21632539  0.44731568  0.03448942    -0.05700
C797        C  0.20351673  0.45440699  0.05259028    -0.06500
C798        C  0.19185966  0.47167689  0.04859218    -0.16100
C799        C  0.19049332  0.48005129  0.02557698    -0.01700
C800        C  0.20342640  0.47320496  0.00754747    -0.09200
C801        C  0.22899861  0.42885859  0.03974291     0.65100
H802        H  0.20424721  0.44812362  0.07030981     0.10500
C803        C  0.17641803  0.49713577  0.02014457     0.63500
H804        H  0.20418552  0.48109732  0.99012042     0.07900
F805        F  0.32666465  0.52445540  0.96964982    -0.19600
F806        F  0.32322786  0.50180978  0.00305199    -0.15800
F807        F  0.32979895  0.48466822  0.96976750    -0.19300
F808        F  0.18249319  0.43896963  0.95148956    -0.22700
F809        F  0.17439258  0.41644211  0.98593075    -0.24200
F810        F  0.18544141  0.39945636  0.95484716    -0.18100
F811        F  0.19431964  0.52542051  0.02717481    -0.20600
F812        F  0.15013302  0.48521268  0.03158499    -0.21800
F813        F  0.17131410  0.49703711  0.99656351    -0.19000
F814        F  0.22194586  0.41744505  0.06197671    -0.19100
F815        F  0.25878685  0.44508058  0.03804541    -0.22900
F816        F  0.21829691  0.40616901  0.02417554    -0.24500
C817        C  0.43273644  0.57986300  0.97712697    -0.11300
C818        C  0.43315296  0.55931704  0.99146480     0.11300
C819        C  0.41916286  0.53013634  0.98426805    -0.03100
C820        C  0.40452558  0.52240707  0.96283192    -0.05900
C821        C  0.40347082  0.54293685  0.94891379    -0.16600
C822        C  0.41829030  0.57221374  0.95576681     0.02300
C823        C  0.44528077  0.56896976  0.01503437     0.12200
C824        C  0.41882647  0.50723764  0.99950056     0.62900
H825        H  0.39262117  0.50005788  0.95728576     0.12300
C826        C  0.41819478  0.59509738  0.94080570     0.55000
H827        H  0.44306055  0.60192307  0.98327760     0.08100
C828        C  0.47539419  0.58691691  0.01896780    -0.05700
C829        C  0.48486624  0.60056566  0.04068710    -0.06500
C830        C  0.46511822  0.59750508  0.05788777    -0.16100
C831        C  0.43508268  0.57795581  0.05454150    -0.01700
C832        C  0.42569759  0.56402878  0.03298316    -0.09200
C833        C  0.49729272  0.59269365  0.99998320     0.65100
H834        H  0.50769308  0.61562333  0.04370340     0.10500
C835        C  0.41301734  0.57169637  0.07358476     0.63500
H836        H  0.40276828  0.55045774  0.02943511     0.07900
F837        F  0.42972342  0.59572896  0.91918133    -0.19600
F838        F  0.43447158  0.62234467  0.95051107    -0.15800
F839        F  0.39020868  0.58888269  0.93823368    -0.19300
F840        F  0.40303309  0.50348671  0.01949014    -0.22700
F841        F  0.44673816  0.51553267  0.00554840    -0.24200
F842        F  0.40649468  0.48090532  0.98821664    -0.18100
F843        F  0.41205857  0.59599471  0.07856915    -0.20600
F844        F  0.42040223  0.56279390  0.09344437    -0.21800
F845        F  0.38544850  0.55006256  0.06715086    -0.19000
F846        F  0.52541219  0.60929878  0.00798390    -0.19100
F847        F  0.49415770  0.60728200  0.98173499    -0.22900
F848        F  0.49317391  0.56689291  0.99190448    -0.24500
C849        C  0.44813971  0.63527998  0.85006777    -0.11300
C850        C  0.44149347  0.65568355  0.85738325     0.11300
C851        C  0.41510795  0.64665116  0.86911920    -0.03100
C852        C  0.39578934  0.61712251  0.87250521    -0.05900
C853        C  0.40276908  0.59659749  0.86621715    -0.16600
C854        C  0.42969565  0.60575482  0.85520676     0.02300
C855        C  0.46303068  0.68669970  0.85422785     0.12200
C856        C  0.40775233  0.66805120  0.87894708     0.62900
H857        H  0.37527142  0.60983495  0.88104656     0.12300
C858        C  0.43997330  0.58512919  0.85049559     0.55000
H859        H  0.46852545  0.64289408  0.84121789     0.08100
C860        C  0.48597346  0.70193927  0.87019095    -0.05700
C861        C  0.49900431  0.73194711  0.87168617    -0.06500
C862        C  0.48886241  0.74636200  0.85842242    -0.16100
C863        C  0.46892527  0.73172410  0.84024147    -0.01700
C864        C  0.45665476  0.70184708  0.83813309    -0.09200
C865        C  0.49506374  0.68647334  0.88677939     0.65100
H866        H  0.51502300  0.74387102  0.88497804     0.10500
C867        C  0.45875158  0.74685050  0.82440325     0.63500
H868        H  0.43953020  0.68970873  0.82567246     0.07900
F869        F  0.43947896  0.57150890  0.87093431    -0.19600
F870        F  0.46800971  0.59934138  0.84195542    -0.15800
F871        F  0.42226292  0.56473230  0.83427803    -0.19300
F872        F  0.40362637  0.68240407  0.86106865    -0.22700
F873        F  0.42990982  0.68788667  0.89306086    -0.24200
F874        F  0.38273116  0.65450839  0.89223782    -0.18100
F875        F  0.48180257  0.77366392  0.81796874    -0.20600
F876        F  0.43826492  0.75019614  0.83580547    -0.21800
F877        F  0.44644274  0.73107870  0.80432075    -0.19000
F878        F  0.51753731  0.70560697  0.90105456    -0.19100
F879        F  0.50434237  0.67113939  0.87424873    -0.22900
F880        F  0.47201631  0.66769472  0.90078026    -0.24500
C881        C  0.19832233  0.56598780  0.85861779    -0.11300
C882        C  0.22535222  0.57464199  0.86824989     0.11300
C883        C  0.24192561  0.60230874  0.87846936    -0.03100
C884        C  0.22990699  0.61962922  0.88022637    -0.05900
C885        C  0.20202795  0.61049505  0.87194351    -0.16600
C886        C  0.18634915  0.58355370  0.86001401     0.02300
C887        C  0.23583990  0.55428136  0.86829147     0.12200
C888        C  0.27206917  0.61328415  0.88793631     0.62900
H889        H  0.24212973  0.64032105  0.88884213     0.12300
C890        C  0.15721517  0.57303165  0.84874803     0.55000
H891        H  0.18633725  0.54494955  0.85046603     0.08100
C892        C  0.22850671  0.53395270  0.88642468    -0.05700
C893        C  0.24412602  0.52003957  0.88842556    -0.06500
C894        C  0.26665787  0.52597697  0.87298516    -0.16100
C895        C  0.27197461  0.54413188  0.85355502    -0.01700
C896        C  0.25634380  0.55797329  0.85155619    -0.09200
C897        C  0.20492526  0.52770135  0.90395418     0.65100
H898        H  0.24013262  0.50581600  0.90300502     0.10500
C899        C  0.29422799  0.55019152  0.83482366     0.63500
H900        H  0.26128249  0.57304273  0.83740966     0.07900
F901        F  0.13612861  0.56433362  0.86566412    -0.19600
F902        F  0.14924147  0.54984883  0.83407725    -0.15800
F903        F  0.15830558  0.59480209  0.83562435    -0.19300
F904        F  0.29009776  0.61503775  0.87014949    -0.22700
F905        F  0.27093359  0.59473499  0.90487489    -0.24200
F906        F  0.28416668  0.64045708  0.89771438    -0.18100
F907        F  0.31638373  0.57881199  0.83607456    -0.20600
F908        F  0.28131794  0.54512798  0.81321785    -0.21800
F909        F  0.30588571  0.53302713  0.83667348    -0.19000
F910        F  0.20267063  0.50880000  0.92110192    -0.19100
F911        F  0.17863903  0.51538836  0.89266449    -0.22900
F912        F  0.21063387  0.55290956  0.91466980    -0.24500
C913        C  0.96700620  0.35489945  0.11136747    -0.11300
C914        C  0.98636641  0.38469231  0.10887992     0.11300
C915        C  0.97577616  0.40341668  0.10730248    -0.03100
C916        C  0.94599508  0.39170099  0.10941994    -0.05900
C917        C  0.92624964  0.36192339  0.11251587    -0.16600
C918        C  0.93688080  0.34299430  0.11315985     0.02300
C919        C  0.01790525  0.39661424  0.10921031     0.12200
C920        C  0.99584463  0.43575453  0.10333268     0.62900
H921        H  0.93794202  0.40612052  0.10878909     0.12300
C922        C  0.91687396  0.31054642  0.11541120     0.55000
H923        H  0.97581492  0.34112306  0.11226915     0.08100
C924        C  0.03322294  0.40370658  0.13047096    -0.05700
C925        C  0.06333778  0.42277975  0.12999505    -0.06500
C926        C  0.07790520  0.43538348  0.10913582    -0.16100
C927        C  0.06304982  0.42619675  0.08774316    -0.01700
C928        C  0.03309874  0.40613190  0.08811958    -0.09200
C929        C  0.01758655  0.39271046  0.15358225     0.65100
H930        H  0.07540753  0.42984216  0.14609612     0.10500
C931        C  0.07866841  0.43829002  0.06481027     0.63500
H932        H  0.02089372  0.39988540  0.07207849     0.07900
F933        F  0.90413841  0.30378104  0.13718866    -0.19600
F934        F  0.93157697  0.29629162  0.11265645    -0.15800
F935        F  0.89568926  0.30048232  0.09852554    -0.19300
F936        F  0.00862210  0.44057701  0.08164106    -0.22700
F937        F  0.01714157  0.44756276  0.12013934    -0.24200
F938        F  0.98118260  0.45020579  0.10419992    -0.18100
F939        F  0.06069597  0.42478960  0.04599537    -0.20600
F940        F  0.10181841  0.43443789  0.06316123    -0.21800
F941        F  0.08872237  0.46739187  0.06348859    -0.19000
F942        F  0.03663861  0.40226239  0.17209977    -0.19100
F943        F  0.00217149  0.36288455  0.15372520    -0.22900
F944        F  0.99872801  0.40222072  0.15694015    -0.24500
C945        C  0.39461729  0.98439390  0.09477304    -0.11300
C946        C  0.37372170  0.98959444  0.10351905     0.11300
C947        C  0.34571131  0.96625601  0.10886229    -0.03100
C948        C  0.34070208  0.93810764  0.10824517    -0.05900
C949        C  0.36282155  0.93316006  0.10207880    -0.16600
C950        C  0.38971427  0.95645162  0.09392726     0.02300
C951        C  0.38369423  0.01977764  0.10962511     0.12200
C952        C  0.32153242  0.97130079  0.11501308     0.62900
H953        H  0.31992822  0.91995077  0.11362599     0.12300
C954        C  0.41323706  0.95206829  0.08440193     0.55000
H955        H  0.41563703  0.00275825  0.09011119     0.08100
C956        C  0.39809476  0.03151247  0.13100062    -0.05700
C957        C  0.41372831  0.06156810  0.13376479    -0.06500
C958        C  0.41610858  0.07981944  0.11565379    -0.16100
C959        C  0.40000967  0.06819305  0.09508593    -0.01700
C960        C  0.38368941  0.03799519  0.09238471    -0.09200
C961        C  0.39944736  0.01268751  0.14988948     0.65100
H962        H  0.42663541  0.07119047  0.14923347     0.10500
C963        C  0.40133192  0.08790432  0.07591415     0.63500
H964        H  0.37258386  0.02851940  0.07619427     0.07900
F965        F  0.42511182  0.94450268  0.10210591    -0.19600
F966        F  0.43539741  0.97689614  0.07406801    -0.15800
F967        F  0.40166105  0.93060241  0.06771689    -0.19300
F968        F  0.31659384  0.98407585  0.09633394    -0.22700
F969        F  0.32892562  0.98930180  0.13407203    -0.24200
F970        F  0.29604173  0.94573565  0.12013299    -0.18100
F971        F  0.42930220  0.10448928  0.06749416    -0.20600
F972        F  0.39277553  0.10593698  0.08470650    -0.21800
F973        F  0.38334312  0.07249331  0.05757620    -0.19000
F974        F  0.41239502  0.02826526  0.16991359    -0.19100
F975        F  0.41532924  0.00112965  0.14207797    -0.22900
F976        F  0.37197302  0.99044847  0.15575492    -0.24500
C977        C  0.69674784  0.26016128  0.15456962    -0.11300
C978        C  0.68202696  0.23206522  0.14564587     0.11300
C979        C  0.69795053  0.22024832  0.13663473    -0.03100
C980        C  0.72816508  0.23811067  0.13488337    -0.05900
C981        C  0.74247396  0.26724407  0.14137652    -0.16600
C982        C  0.72688653  0.27782273  0.15315183     0.02300
C983        C  0.65098661  0.21916538  0.14056902     0.12200
C984        C  0.68413402  0.18986657  0.12697974     0.62900
H985        H  0.74019307  0.22998383  0.12615024     0.12300
C986        C  0.74077530  0.30843871  0.16232078     0.55000
H987        H  0.68441518  0.26918355  0.16111671     0.08100
C988        C  0.62911597  0.20618453  0.15765278    -0.05700
C989        C  0.60032494  0.19575543  0.15105193    -0.06500
C990        C  0.59302032  0.19817441  0.12802473    -0.16100
C991        C  0.61532356  0.21049447  0.11076659    -0.01700
C992        C  0.64389455  0.22105405  0.11761472    -0.09200
C993        C  0.63633588  0.20316924  0.18253167     0.65100
H994        H  0.58337515  0.18595062  0.16400172     0.10500
C995        C  0.60963847  0.21228030  0.08507517     0.63500
H996        H  0.66133566  0.23122241  0.10501422     0.07900
F997        F  0.72866972  0.30835969  0.18355106    -0.19600
F998        F  0.73608358  0.32490361  0.14678424    -0.15800
F999        F  0.77015105  0.32112661  0.16564613    -0.19300
F1000       F  0.69014586  0.19130110  0.10345280    -0.22700
F1001       F  0.65447632  0.17362119  0.12999168    -0.24200
F1002       F  0.69569425  0.17571258  0.13809270    -0.18100
F1003       F  0.63406907  0.22132845  0.07153382    -0.20600
F1004       F  0.60106543  0.23186978  0.08187224    -0.21800
F1005       F  0.58849089  0.18536252  0.07704286    -0.19000
F1006       F  0.61173749  0.18789186  0.19610923    -0.19100
F1007       F  0.65359191  0.23015516  0.19234650    -0.22900
F1008       F  0.65097731  0.18870553  0.18284846    -0.24500
C1009       C  0.97245156  0.63526483  0.89053473    -0.11300
C1010       C  0.99137312  0.62504117  0.89128292     0.11300
C1011       C  0.98017723  0.59527406  0.89477218    -0.03100
C1012       C  0.95012414  0.57639401  0.89571641    -0.05900
C1013       C  0.93087166  0.58612270  0.89355216    -0.16600
C1014       C  0.94212039  0.61619521  0.89183518     0.02300
C1015       C  0.02290312  0.64531033  0.88780159     0.12200
C1016       C  0.99989845  0.58338453  0.89723625     0.62900
H1017       H  0.94127189  0.55345162  0.89765043     0.12300
C1018       C  0.92238102  0.62801473  0.89090449     0.55000
H1019       H  0.98166213  0.65823929  0.88844900     0.08100
C1020       C  0.03569990  0.64942695  0.86555983    -0.05700
C1021       C  0.06557793  0.66052140  0.86416031    -0.06500
C1022       C  0.08287385  0.66867496  0.88416813    -0.16100
C1023       C  0.07070302  0.66875751  0.90598878    -0.01700
C1024       C  0.04058040  0.65664929  0.90746739    -0.09200
C1025       C  0.01763840  0.64119820  0.84358453     0.65100
H1026       H  0.07546795  0.66162222  0.84749158     0.10500
C1027       C  0.08909230  0.68012661  0.92771647     0.63500
H1028       H  0.03030439  0.65409124  0.92420879     0.07900
F1029       F  0.93777367  0.65771626  0.88829925    -0.19600
F1030       F  0.90676292  0.62139394  0.91137562    -0.15800
F1031       F  0.90355177  0.61602138  0.87237859    -0.19300
F1032       F  0.01743498  0.59551930  0.91645341    -0.22700
F1033       F  0.01701585  0.58969595  0.87764940    -0.24200
F1034       F  0.98438604  0.55371701  0.90010422    -0.18100
F1035       F  0.07272157  0.67743641  0.94713846    -0.20600
F1036       F  0.10973720  0.70907483  0.92481069    -0.21800
F1037       F  0.10265066  0.66504545  0.93181623    -0.19000
F1038       F  0.03451642  0.64786995  0.82375379    -0.19100
F1039       F  0.00352479  0.65615703  0.84271901    -0.22900
F1040       F  0.99735021  0.61192186  0.84336524    -0.24500
C1041       C  0.87979569  0.47136895  0.98911348    -0.11300
C1042       C  0.87757810  0.44469461  0.98641574     0.11300
C1043       C  0.87720281  0.43413080  0.96380907    -0.03100
C1044       C  0.87744504  0.45013080  0.94453693    -0.05900
C1045       C  0.87730619  0.47564087  0.94736973    -0.16600
C1046       C  0.88005125  0.48730129  0.96988712     0.02300
C1047       C  0.87059860  0.42637815  0.00737098     0.12200
C1048       C  0.87419179  0.40504783  0.96004846     0.62900
H1049       H  0.87470587  0.44129552  0.92718127     0.12300
C1050       C  0.88095297  0.51517103  0.97458143     0.55000
H1051       H  0.87964757  0.47904896  0.00649533     0.08100
C1052       C  0.89152891  0.43066627  0.02407086    -0.05700
C1053       C  0.88227640  0.41373635  0.04442475    -0.06500
C1054       C  0.85303800  0.39249414  0.04812123    -0.16100
C1055       C  0.83220046  0.38781831  0.03098431    -0.01700
C1056       C  0.84144783  0.40540191  0.01113492    -0.09200
C1057       C  0.92334060  0.45303883  0.02038355     0.65100
H1058       H  0.89784077  0.41689378  0.05762177     0.10500
C1059       C  0.80021376  0.36497840  0.03365019     0.63500
H1060       H  0.82589317  0.40299764  0.99820471     0.07900
F1061       F  0.90295466  0.53183953  0.99010238    -0.19600
F1062       F  0.85493325  0.50886031  0.98427532    -0.15800
F1063       F  0.88603608  0.53139108  0.95468075    -0.19300
F1064       F  0.84705795  0.38312495  0.96706909    -0.22700
F1065       F  0.89486689  0.40347564  0.97271694    -0.24200
F1066       F  0.87769078  0.40056697  0.93688249    -0.18100
F1067       F  0.78372098  0.36664864  0.01615214    -0.20600
F1068       F  0.78994312  0.36849867  0.05463839    -0.21800
F1069       F  0.79625169  0.33775225  0.03267531    -0.19000
F1070       F  0.94029992  0.45226066  0.03791383    -0.19100
F1071       F  0.92750308  0.48033633  0.01995309    -0.22900
F1072       F  0.93265018  0.44803020  0.99951702    -0.24500
C1073       C  0.66037316  0.04012104  0.89397225    -0.11300
C1074       C  0.63062347  0.01972784  0.89578817     0.11300
C1075       C  0.61106805  0.02916770  0.89915585    -0.03100
C1076       C  0.62183074  0.05887725  0.89888500    -0.05900
C1077       C  0.65137715  0.07945140  0.89577422    -0.16600
C1078       C  0.67125078  0.07007325  0.89400942     0.02300
C1079       C  0.61987115  0.98852883  0.89302402     0.12200
C1080       C  0.57884357  0.00794228  0.90271659     0.62900
H1081       H  0.60700093  0.06636337  0.90082360     0.12300
C1082       C  0.70351243  0.09131771  0.89148386     0.55000
H1083       H  0.67490821  0.03229115  0.89197728     0.08100
C1084       C  0.61359378  0.97538697  0.87078245    -0.05700
C1085       C  0.59677385  0.94508754  0.86938039    -0.06500
C1086       C  0.58601072  0.92799488  0.88942162    -0.16100
C1087       C  0.59488507  0.94098029  0.91158165    -0.01700
C1088       C  0.61216071  0.97126994  0.91301674    -0.09200
C1089       C  0.62336450  0.99335402  0.84869768     0.65100
H1090       H  0.59000740  0.93460136  0.85257729     0.10500
C1091       C  0.58510156  0.92293462  0.93355538     0.63500
H1092       H  0.61779738  0.98178289  0.92985069     0.07900
F1093       F  0.70893554  0.10875564  0.87231120    -0.19600
F1094       F  0.71859767  0.07746788  0.88863877    -0.15800
F1095       F  0.71387654  0.10821896  0.91122528    -0.19300
F1096       F  0.57438929  0.99210761  0.92273399    -0.22700
F1097       F  0.56754278  0.98937625  0.88396710    -0.24200
F1098       F  0.56369391  0.02180232  0.90500494    -0.18100
F1099       F  0.60006027  0.93907837  0.95284725    -0.20600
F1100       F  0.58982076  0.90042061  0.93147319    -0.21800
F1101       F  0.55596559  0.91183059  0.93716657    -0.19000
F1102       F  0.61543617  0.97627100  0.82897015    -0.19100
F1103       F  0.65314623  0.01117331  0.84861354    -0.22900
F1104       F  0.61114239  0.01007201  0.84748380    -0.24500
C1105       C  0.54634225  0.11389202  0.96833814    -0.11300
C1106       C  0.55923421  0.12438328  0.99011366     0.11300
C1107       C  0.58881684  0.13419446  0.99326833    -0.03100
C1108       C  0.60554090  0.13705685  0.97365264    -0.05900
C1109       C  0.59337871  0.12965935  0.95138128    -0.16600
C1110       C  0.56307645  0.11612557  0.94873803     0.02300
C1111       C  0.54281004  0.12871444  0.00861421     0.12200
C1112       C  0.60284936  0.14281552  0.01710447     0.62900
H1113       H  0.62871779  0.14686756  0.97531823     0.12300
C1114       C  0.54883665  0.10534538  0.92524381     0.55000
H1115       H  0.52345445  0.10563514  0.96654936     0.08100
C1116       C  0.54315347  0.15482112  0.01004586    -0.05700
C1117       C  0.53301102  0.16074943  0.03045599    -0.06500
C1118       C  0.52249091  0.14147568  0.04936676    -0.16100
C1119       C  0.51939859  0.11397229  0.04682518    -0.01700
C1120       C  0.52983203  0.10818507  0.02636388    -0.09200
C1121       C  0.55502925  0.17672055  0.99033824     0.65100
H1122       H  0.53455133  0.18131951  0.03212680     0.10500
C1123       C  0.50542912  0.09077724  0.06540956     0.63500
H1124       H  0.52934311  0.08812234  0.02455931     0.07900
F1125       F  0.55921324  0.12802633  0.90975685    -0.19600
F1126       F  0.51908579  0.09229122  0.92662337    -0.15800
F1127       F  0.55488134  0.08528457  0.91680030    -0.19300
F1128       F  0.58902088  0.11946732  0.03200944    -0.22700
F1129       F  0.60085899  0.16529791  0.02603529    -0.24200
F1130       F  0.63181109  0.15161234  0.01624738    -0.18100
F1131       F  0.49955752  0.06429534  0.05724547    -0.20600
F1132       F  0.47951013  0.08751342  0.07246359    -0.21800
F1133       F  0.52374027  0.09821049  0.08424664    -0.19000
F1134       F  0.55347140  0.20073817  0.99537471    -0.19100
F1135       F  0.53918024  0.16418518  0.97039651    -0.22900
F1136       F  0.58369284  0.18599179  0.98613755    -0.24500
C1137       C  0.80825353  0.25673887  0.01971550    -0.11300
C1138       C  0.78077610  0.23151655  0.02144131     0.11300
C1139       C  0.76867021  0.22052611  0.04360215    -0.03100
C1140       C  0.78207300  0.23787923  0.06316017    -0.05900
C1141       C  0.80745405  0.26506965  0.06105537    -0.16600
C1142       C  0.82204904  0.27382877  0.03943032     0.02300
C1143       C  0.76297377  0.22009570  0.00013659     0.12200
C1144       C  0.74122212  0.19114477  0.04637965     0.62900
H1145       H  0.77172976  0.23127509  0.08006148     0.12300
C1146       C  0.85104756  0.30179043  0.03702502     0.55000
H1147       H  0.81757365  0.26420159  0.00258758     0.08100
C1148       C  0.74668272  0.23188176  0.99215614    -0.05700
C1149       C  0.72871701  0.21927946  0.97282583    -0.06500
C1150       C  0.72704273  0.19598998  0.96087465    -0.16100
C1151       C  0.74336502  0.18421882  0.96875318    -0.01700
C1152       C  0.76124630  0.19661754  0.98841185    -0.09200
C1153       C  0.74808166  0.25759681  0.00404711     0.65100
H1154       H  0.71593538  0.22786208  0.96660388     0.10500
C1155       C  0.74088854  0.15804535  0.95713100     0.63500
H1156       H  0.77381641  0.18794756  0.99495010     0.07900
F1157       F  0.84820547  0.32496178  0.04206020    -0.19600
F1158       F  0.86215722  0.30544440  0.01473222    -0.15800
F1159       F  0.87060248  0.30166371  0.05225352    -0.19300
F1160       F  0.74585350  0.17021192  0.03769313    -0.22700
F1161       F  0.71870130  0.19013797  0.03441241    -0.24200
F1162       F  0.73307257  0.18475543  0.06947625    -0.18100
F1163       F  0.75128043  0.16481528  0.93461843    -0.20600
F1164       F  0.71220908  0.13578368  0.95678089    -0.21800
F1165       F  0.75654929  0.14848770  0.96879922    -0.19000
F1166       F  0.73049162  0.26547870  0.99329201    -0.19100
F1167       F  0.77606228  0.28116718  0.00339186    -0.22900
F1168       F  0.73920065  0.25093572  0.02693512    -0.24500
C1169       C  0.77215124  0.31245633  0.89129373    -0.11300
C1170       C  0.76447051  0.32042144  0.87071845     0.11300
C1171       C  0.74778239  0.29922473  0.85385184    -0.03100
C1172       C  0.73561801  0.26995272  0.85976942    -0.05900
C1173       C  0.74037525  0.26188877  0.88169549    -0.16600
C1174       C  0.76045341  0.28340888  0.89711160     0.02300
C1175       C  0.77281020  0.35096333  0.86868853     0.12200
C1176       C  0.74304787  0.30756686  0.82989987     0.62900
H1177       H  0.72096677  0.25317694  0.84787027     0.12300
C1178       C  0.76857517  0.27602825  0.92013852     0.55000
H1179       H  0.78592217  0.32922678  0.90357553     0.08100
C1180       C  0.75692506  0.36118234  0.88036149    -0.05700
C1181       C  0.76946382  0.39112085  0.88291099    -0.06500
C1182       C  0.79739322  0.41097813  0.87449419    -0.16100
C1183       C  0.81193862  0.40056588  0.86072726    -0.01700
C1184       C  0.79937176  0.37057057  0.85837328    -0.09200
C1185       C  0.72731800  0.34046734  0.89089417     0.65100
H1186       H  0.75811365  0.39910186  0.89282263     0.10500
C1187       C  0.84091635  0.42047178  0.84898600     0.63500
H1188       H  0.81104528  0.36211331  0.84957278     0.07900
F1189       F  0.79391834  0.29922211  0.92885601    -0.19600
F1190       F  0.77279183  0.25325805  0.91734465    -0.15800
F1191       F  0.74683765  0.26865592  0.93621800    -0.19300
F1192       F  0.76939482  0.32355909  0.81865531    -0.22700
F1193       F  0.73045413  0.32389751  0.83159328    -0.24200
F1194       F  0.72530186  0.28355466  0.81645370    -0.18100
F1195       F  0.86276639  0.43182296  0.86533530    -0.20600
F1196       F  0.84051538  0.44259995  0.83766026    -0.21800
F1197       F  0.84724798  0.40596726  0.83254047    -0.19000
F1198       F  0.71506296  0.35490243  0.90054929    -0.19100
F1199       F  0.72956437  0.32420318  0.90821250    -0.22900
F1200       F  0.70881472  0.32218004  0.87391273    -0.24500
C1201       C  0.34392012  0.38163548  0.90090666    -0.11300
C1202       C  0.37143703  0.39073233  0.89171972     0.11300
C1203       C  0.38759590  0.41794675  0.88065743    -0.03100
C1204       C  0.37629301  0.43585167  0.88036466    -0.05900
C1205       C  0.34955167  0.42760587  0.89060988    -0.16600
C1206       C  0.33258302  0.39979282  0.90055252     0.02300
C1207       C  0.38422000  0.37271380  0.89526088     0.12200
C1208       C  0.41699714  0.42841648  0.86962488     0.62900
H1209       H  0.38865639  0.45698323  0.87237529     0.12300
C1210       C  0.30341461  0.38992207  0.91148384     0.55000
H1211       H  0.33184779  0.36056703  0.90900934     0.08100
C1212       C  0.40028766  0.37573481  0.91548516    -0.05700
C1213       C  0.41788586  0.36397903  0.91549534    -0.06500
C1214       C  0.42001749  0.34954137  0.89606231    -0.16100
C1215       C  0.40112920  0.34343114  0.87696708    -0.01700
C1216       C  0.38347070  0.35529227  0.87696056    -0.09200
C1217       C  0.39977158  0.39241590  0.93649522     0.65100
H1218       H  0.43167880  0.36753264  0.93037273     0.10500
C1219       C  0.40048858  0.32573761  0.85631241     0.63500
H1220       H  0.37024745  0.35264739  0.86191307     0.07900
F1221       F  0.30651406  0.40894424  0.92885053    -0.19600
F1222       F  0.29113701  0.36268473  0.92118242    -0.15800
F1223       F  0.28473051  0.38894569  0.89474946    -0.19300
F1224       F  0.41419764  0.40981674  0.85202813    -0.22700
F1225       F  0.43601772  0.42958636  0.88611519    -0.24200
F1226       F  0.42896748  0.45570994  0.86007132    -0.18100
F1227       F  0.38057853  0.32258135  0.83977279    -0.20600
F1228       F  0.39294202  0.29851248  0.86373704    -0.21800
F1229       F  0.42731283  0.33894730  0.84576219    -0.19000
F1230       F  0.41691423  0.39266794  0.95435070    -0.19100
F1231       F  0.37178290  0.37973699  0.94479756    -0.22900
F1232       F  0.40976011  0.42070615  0.93043876    -0.24500
C1233       C  0.45957576  0.27251051  0.99961528    -0.11300
C1234       C  0.44829756  0.24286254  0.99696405     0.11300
C1235       C  0.43911976  0.23029811  0.97464779    -0.03100
C1236       C  0.44634179  0.24862863  0.95508401    -0.05900
C1237       C  0.46098401  0.27878741  0.95756795    -0.16600
C1238       C  0.46554219  0.29064712  0.98024897     0.02300
C1239       C  0.45150353  0.22705107  0.01683133     0.12200
C1240       C  0.42143797  0.19774842  0.97178557     0.62900
H1241       H  0.44167250  0.23963329  0.93771455     0.12300
C1242       C  0.47830719  0.32260649  0.98414632     0.55000
H1243       H  0.46577366  0.28178544  0.01685430     0.08100
C1244       C  0.47680128  0.22578613  0.01882603    -0.05700
C1245       C  0.48009138  0.21244666  0.03842974    -0.06500
C1246       C  0.46018131  0.20204143  0.05698192    -0.16100
C1247       C  0.43506902  0.20370027  0.05527544    -0.01700
C1248       C  0.43089234  0.21581813  0.03493085    -0.09200
C1249       C  0.50115909  0.23995451  0.00094597     0.65100
H1250       H  0.49934086  0.21132568  0.03998582     0.10500
C1251       C  0.41380514  0.19425411  0.07531678     0.63500
H1252       H  0.41204642  0.21760968  0.03336146     0.07900
F1253       F  0.50794444  0.33710741  0.98123503    -0.19600
F1254       F  0.47239427  0.32796202  0.00637985    -0.15800
F1255       F  0.46665392  0.33313257  0.96861539    -0.19300
F1256       F  0.39566056  0.18683504  0.98380154    -0.22700
F1257       F  0.43606163  0.18533184  0.98049334    -0.24200
F1258       F  0.41511070  0.18981904  0.94868277    -0.18100
F1259       F  0.42804148  0.20918145  0.09524443    -0.20600
F1260       F  0.40132472  0.16499767  0.07910623    -0.21800
F1261       F  0.39194086  0.19947665  0.07090369    -0.19000
F1262       F  0.52434469  0.23734150  0.00687451    -0.19100
F1263       F  0.51120729  0.26907031  0.99934733    -0.22900
F1264       F  0.49143446  0.22737328  0.97939621    -0.24500
C1265       C  0.63788824  0.43138777  0.85364715    -0.11300
C1266       C  0.65615871  0.45049765  0.87086246     0.11300
C1267       C  0.64413741  0.45609204  0.89052314    -0.03100
C1268       C  0.61413435  0.43905290  0.89403635    -0.05900
C1269       C  0.59596773  0.41783953  0.87796290    -0.16600
C1270       C  0.60761399  0.41522779  0.85666908     0.02300
C1271       C  0.68742318  0.46095882  0.87002902     0.12200
C1272       C  0.66309872  0.47937120  0.90799627     0.62900
H1273       H  0.60466420  0.44147799  0.90981861     0.12300
C1274       C  0.58835737  0.39492373  0.83767334     0.55000
H1275       H  0.64764427  0.42820752  0.83840160     0.08100
C1276       C  0.69779542  0.44462952  0.88041243    -0.05700
C1277       C  0.72761087  0.45764141  0.88360038    -0.06500
C1278       C  0.74739980  0.48622379  0.87667234    -0.16100
C1279       C  0.73721834  0.50145153  0.86391967    -0.01700
C1280       C  0.70705761  0.48846710  0.86102464    -0.09200
C1281       C  0.67738991  0.41377754  0.88863532     0.65100
H1282       H  0.73570928  0.44564522  0.89223446     0.10500
C1283       C  0.75761801  0.53142634  0.85420815     0.63500
H1284       H  0.69843843  0.50011997  0.85261200     0.07900
F1285       F  0.57191907  0.36707375  0.84616648    -0.19600
F1286       F  0.60427097  0.39472167  0.81890160    -0.15800
F1287       F  0.57023424  0.40376693  0.82979465    -0.19300
F1288       F  0.67840773  0.50572996  0.89679356    -0.22700
F1289       F  0.68235352  0.47330805  0.91810527    -0.24200
F1290       F  0.64692507  0.48168497  0.92554822    -0.18100
F1291       F  0.77651941  0.53064114  0.83852971    -0.20600
F1292       F  0.77312598  0.55024447  0.87207304    -0.21800
F1293       F  0.74287261  0.54207086  0.84261330    -0.19000
F1294       F  0.69214388  0.40200051  0.89843664    -0.19100
F1295       F  0.66180767  0.39671174  0.86996309    -0.22900
F1296       F  0.65844386  0.41291968  0.90518538    -0.24500
C1297       C  0.54055160  0.24664599  0.86739414    -0.11300
C1298       C  0.56461315  0.25364513  0.88119479     0.11300
C1299       C  0.57528924  0.27673074  0.89717187    -0.03100
C1300       C  0.56078782  0.29158144  0.89935212    -0.05900
C1301       C  0.53644309  0.28464475  0.88580785    -0.16600
C1302       C  0.52621458  0.26193220  0.86931283     0.02300
C1303       C  0.57800289  0.23605490  0.87945979     0.12200
C1304       C  0.60216615  0.28590756  0.91167353     0.62900
H1305       H  0.56853238  0.30898244  0.91184438     0.12300
C1306       C  0.50118395  0.25455091  0.85325099     0.55000
H1307       H  0.53307355  0.22900116  0.85516737     0.08100
C1308       C  0.56792183  0.21104445  0.89322479    -0.05700
C1309       C  0.58493506  0.19876694  0.89464185    -0.06500
C1310       C  0.61121224  0.21038474  0.88260067    -0.16100
C1311       C  0.62030921  0.23414562  0.86749838    -0.01700
C1312       C  0.60330440  0.24662312  0.86612333    -0.09200
C1313       C  0.53971656  0.19782153  0.90678863     0.65100
H1314       H  0.57839620  0.18056133  0.90606321     0.10500
C1315       C  0.64755793  0.24602446  0.85290427     0.63500
H1316       H  0.61031583  0.26559710  0.85547695     0.07900
F1317       F  0.47599238  0.24405253  0.86599765    -0.19600
F1318       F  0.49675792  0.23372513  0.83710871    -0.15800
F1319       F  0.50692097  0.27900031  0.84126099    -0.19300
F1320       F  0.62596946  0.29621929  0.89720922    -0.22700
F1321       F  0.59895025  0.26277683  0.92424050    -0.24200
F1322       F  0.60757630  0.30753819  0.92729920    -0.18100
F1323       F  0.65067684  0.26707516  0.83759212    -0.20600
F1324       F  0.64647587  0.22398780  0.84005221    -0.21800
F1325       F  0.67155665  0.25812962  0.86714115    -0.19000
F1326       F  0.53422377  0.17364996  0.91917284    -0.19100
F1327       F  0.51705552  0.18954738  0.89156651    -0.22900
F1328       F  0.54066530  0.21762027  0.92240475    -0.24500
C1329       C  0.63751110  0.61278355  0.13503389    -0.11300
C1330       C  0.64079173  0.62486378  0.11297323     0.11300
C1331       C  0.65916648  0.62308913  0.09648883    -0.03100
C1332       C  0.67030855  0.60543005  0.10156617    -0.05900
C1333       C  0.66370924  0.59011836  0.12263513    -0.16600
C1334       C  0.64904026  0.59575280  0.14037429     0.02300
C1335       C  0.62212841  0.63641762  0.10742252     0.12200
C1336       C  0.66613297  0.63905057  0.07353543     0.62900
H1337       H  0.68243100  0.60183127  0.08844741     0.12300
C1338       C  0.64263240  0.58199970  0.16427788     0.55000
H1339       H  0.62408325  0.61516757  0.14771804     0.08100
C1340       C  0.59258574  0.61746818  0.10185645    -0.05700
C1341       C  0.57439532  0.62852731  0.10105553    -0.06500
C1342       C  0.58455337  0.65757862  0.10602600    -0.16100
C1343       C  0.61441050  0.67686391  0.11046843    -0.01700
C1344       C  0.63278185  0.66580974  0.11114358    -0.09200
C1345       C  0.57996260  0.58536675  0.09787632     0.65100
H1346       H  0.55154207  0.61413012  0.09763090     0.10500
C1347       C  0.62649341  0.70849781  0.11569217     0.63500
H1348       H  0.65536384  0.67973533  0.11567502     0.07900
F1349       F  0.61609615  0.55643379  0.16375767    -0.19600
F1350       F  0.64147125  0.59997738  0.18071010    -0.15800
F1351       F  0.66379138  0.57678262  0.17127677    -0.19300
F1352       F  0.67820414  0.66819482  0.07765709    -0.22700
F1353       F  0.64121144  0.62887750  0.06063915    -0.24200
F1354       F  0.68566050  0.63569746  0.06052623    -0.18100
F1355       F  0.65575712  0.72305556  0.12065066    -0.20600
F1356       F  0.61234287  0.71110859  0.13469152    -0.21800
F1357       F  0.62272776  0.72157217  0.09660839    -0.19000
F1358       F  0.55127198  0.57134161  0.09113993    -0.19100
F1359       F  0.58136305  0.57250416  0.11810540    -0.22900
F1360       F  0.59526213  0.58138105  0.08059663    -0.24500
C1361       C  0.74348538  0.55077675  0.01295764    -0.11300
C1362       C  0.77160016  0.55699001  0.01698540     0.11300
C1363       C  0.78322161  0.56449391  0.03966125    -0.03100
C1364       C  0.76496954  0.56227873  0.05809340    -0.05900
C1365       C  0.73534649  0.55146618  0.05460502    -0.16600
C1366       C  0.72491396  0.54759822  0.03139557     0.02300
C1367       C  0.78654903  0.55157480  0.99771486     0.12200
C1368       C  0.81432422  0.57347269  0.04443138     0.62900
H1369       H  0.77324579  0.56669591  0.07565568     0.12300
C1370       C  0.69413148  0.53908054  0.02580906     0.55000
H1371       H  0.73534160  0.54596204  0.99532226     0.08100
C1372       C  0.78031142  0.52332661  0.99311851    -0.05700
C1373       C  0.79352505  0.51883750  0.97391646    -0.06500
C1374       C  0.81205079  0.54128939  0.95866060    -0.16100
C1375       C  0.81872266  0.56976303  0.96355437    -0.01700
C1376       C  0.80577225  0.57437238  0.98312458    -0.09200
C1377       C  0.75887293  0.49771530  0.00795549     0.65100
H1378       H  0.78827967  0.49714769  0.97004948     0.10500
C1379       C  0.83985023  0.59525504  0.94868557     0.63500
H1380       H  0.81006478  0.59574926  0.98695227     0.07900
F1381       F  0.67540483  0.50993534  0.02990092    -0.19600
F1382       F  0.69137132  0.54437575  0.00272240    -0.15800
F1383       F  0.68625282  0.55491087  0.03932182    -0.19300
F1384       F  0.83278227  0.59766048  0.03142836    -0.22700
F1385       F  0.81869349  0.55143964  0.03848784    -0.24200
F1386       F  0.82142056  0.58004626  0.06764523    -0.18100
F1387       F  0.82826020  0.59319392  0.92690467    -0.20600
F1388       F  0.86540670  0.59566378  0.94655323    -0.21800
F1389       F  0.84622677  0.62124323  0.95838530    -0.19000
F1390       F  0.75720706  0.47246447  0.00125054    -0.19100
F1391       F  0.73158851  0.49350792  0.00587136    -0.22900
F1392       F  0.76702615  0.50261320  0.03104082    -0.24500
C1393       C  0.53918689  0.44738189  0.98561543    -0.11300
C1394       C  0.55940757  0.44504511  0.99905120     0.11300
C1395       C  0.56899485  0.42658532  0.99173880    -0.03100
C1396       C  0.55785506  0.41096585  0.97112684    -0.05900
C1397       C  0.53734345  0.41280180  0.95777035    -0.16600
C1398       C  0.52797214  0.43150031  0.96482547     0.02300
C1399       C  0.56967522  0.46082202  0.02137379     0.12200
C1400       C  0.59049974  0.42284840  0.00585514     0.62900
H1401       H  0.56480910  0.39658672  0.96536842     0.12300
C1402       C  0.50562851  0.43378950  0.95094716     0.55000
H1403       H  0.53202107  0.46145026  0.99171851     0.08100
C1404       C  0.59485148  0.48873191  0.02257758    -0.05700
C1405       C  0.60922031  0.49828043  0.04401772    -0.06500
C1406       C  0.59932188  0.48038209  0.06365068    -0.16100
C1407       C  0.57239414  0.45397149  0.06300938    -0.01700
C1408       C  0.55738018  0.44504486  0.04184127    -0.09200
C1409       C  0.60746038  0.50732019  0.00102351     0.65100
H1410       H  0.62964182  0.51863215  0.04509267     0.10500
C1411       C  0.56081133  0.43432220  0.08407969     0.63500
H1412       H  0.53772768  0.42400760  0.04050515     0.07900
F1413       F  0.51673077  0.44524663  0.92925746    -0.19600
F1414       F  0.49774717  0.45137271  0.96178770    -0.15800
F1415       F  0.48107334  0.40670814  0.94835456    -0.19300
F1416       F  0.57859096  0.41050865  0.02714136    -0.22700
F1417       F  0.61556672  0.44928843  0.00938178    -0.24200
F1418       F  0.59800019  0.40512510  0.99473802    -0.18100
F1419       F  0.53316656  0.41089330  0.08037097    -0.20600
F1420       F  0.55989708  0.44951096  0.10301162    -0.21800
F1421       F  0.57860422  0.42399135  0.08909219    -0.19000
F1422       F  0.63061788  0.53454350  0.00636356    -0.19100
F1423       F  0.58657968  0.51055587  0.99036675    -0.22900
F1424       F  0.61691323  0.49447991  0.98560753    -0.24500
C1425       C  0.56397606  0.30716182  0.15615007    -0.11300
C1426       C  0.55500007  0.32295697  0.14335853     0.11300
C1427       C  0.52978791  0.30833835  0.12946892    -0.03100
C1428       C  0.51585475  0.27833027  0.12728323    -0.05900
C1429       C  0.52665348  0.26292083  0.13814662    -0.16600
C1430       C  0.55003192  0.27709394  0.15383367     0.02300
C1431       C  0.57594058  0.35410796  0.14063234     0.12200
C1432       C  0.51762714  0.32321607  0.11549480     0.62900
H1433       H  0.49763508  0.26714976  0.11555222     0.12300
C1434       C  0.56047213  0.26064853  0.16770682     0.55000
H1435       H  0.58334757  0.31879254  0.16659110     0.08100
C1436       C  0.57757279  0.37492758  0.15621116    -0.05700
C1437       C  0.59672653  0.40425880  0.15099597    -0.06500
C1438       C  0.61458531  0.41291448  0.13115764    -0.16100
C1439       C  0.61395539  0.39173472  0.11627598    -0.01700
C1440       C  0.59432282  0.36257652  0.12130723    -0.09200
C1441       C  0.55866327  0.36598666  0.17777871     0.65100
H1442       H  0.59768930  0.42071554  0.16224953     0.10500
C1443       C  0.63303214  0.39953896  0.09476625     0.63500
H1444       H  0.59278638  0.34590183  0.10998203     0.07900
F1445       F  0.57933780  0.27753197  0.18514354    -0.19600
F1446       F  0.57470837  0.25170456  0.15331545    -0.15800
F1447       F  0.53707777  0.23683864  0.17800491    -0.19300
F1448       F  0.51951795  0.31870867  0.09204803    -0.22700
F1449       F  0.53177799  0.35259525  0.11939204    -0.24200
F1450       F  0.48882838  0.31139422  0.12131200    -0.18100
F1451       F  0.62674542  0.37540165  0.08191127    -0.20600
F1452       F  0.66174013  0.41319496  0.10130197    -0.21800
F1453       F  0.62902896  0.41754263  0.08048752    -0.19000
F1454       F  0.56377760  0.38959444  0.19082416    -0.19100
F1455       F  0.56418830  0.34870030  0.19161940    -0.22900
F1456       F  0.52984206  0.35070050  0.17144005    -0.24500
C1457       C  0.78994506  0.43144405  0.15328137    -0.11300
C1458       C  0.77344424  0.43390310  0.13584824     0.11300
C1459       C  0.76726984  0.41764729  0.11516061    -0.03100
C1460       C  0.77861554  0.39991682  0.11238164    -0.05900
C1461       C  0.79608715  0.39789569  0.12938066    -0.16600
C1462       C  0.80125606  0.41344698  0.15061425     0.02300
C1463       C  0.76397837  0.45477026  0.13875575     0.12200
C1464       C  0.74911245  0.41934553  0.09582527     0.62900
H1465       H  0.77441181  0.38802137  0.09631234     0.12300
C1466       C  0.81841221  0.41132139  0.17047457     0.55000
H1467       H  0.79433843  0.44426563  0.16887052     0.08100
C1468       C  0.73789790  0.44738217  0.15026140    -0.05700
C1469       C  0.72681619  0.46544817  0.14737953    -0.06500
C1470       C  0.74053529  0.48963230  0.13272736    -0.16100
C1471       C  0.76746037  0.49784253  0.12242548    -0.01700
C1472       C  0.77941536  0.48084495  0.12652782    -0.09200
C1473       C  0.72130610  0.41992379  0.16452530     0.65100
H1474       H  0.70617747  0.45956827  0.15503057     0.10500
C1475       C  0.78229384  0.52306321  0.10573599     0.63500
H1476       H  0.79949716  0.48611884  0.11814123     0.07900
F1477       F  0.81805709  0.42596001  0.19005598    -0.19600
F1478       F  0.84695963  0.42321106  0.16384491    -0.15800
F1479       F  0.80662289  0.38272239  0.17662810    -0.19300
F1480       F  0.76337020  0.44668039  0.08622155    -0.22700
F1481       F  0.72273797  0.41320765  0.10456484    -0.24200
F1482       F  0.74374501  0.39991453  0.07811721    -0.18100
F1483       F  0.78581466  0.54759409  0.11618689    -0.20600
F1484       F  0.76555503  0.51676385  0.08603670    -0.21800
F1485       F  0.80925779  0.52871238  0.09894626    -0.19000
F1486       F  0.69609258  0.41645762  0.17373596    -0.19100
F1487       F  0.73830116  0.42085310  0.18273019    -0.22900
F1488       F  0.71393237  0.39615633  0.15081397    -0.24500
C1489       C  0.64922164  0.15851370  0.73216037    -0.11300
C1490       C  0.67461879  0.16524643  0.74370892     0.11300
C1491       C  0.69922161  0.17102633  0.73067926    -0.03100
C1492       C  0.69779359  0.17100569  0.70621116    -0.05900
C1493       C  0.67255569  0.16508917  0.69439130    -0.16600
C1494       C  0.64761300  0.15846664  0.70773091     0.02300
C1495       C  0.67412893  0.16490770  0.76956775     0.12200
C1496       C  0.72688714  0.17740496  0.74260363     0.62900
H1497       H  0.71659266  0.17565782  0.69607433     0.12300
C1498       C  0.61956920  0.15226829  0.69667519     0.55000
H1499       H  0.63054143  0.15343022  0.74267059     0.08100
C1500       C  0.67751433  0.18847263  0.78279424    -0.05700
C1501       C  0.67590365  0.18617019  0.80722333    -0.06500
C1502       C  0.67021581  0.16088814  0.81853197    -0.16100
C1503       C  0.66567596  0.13695235  0.80526468    -0.01700
C1504       C  0.66794141  0.13947981  0.78089246    -0.09200
C1505       C  0.68180936  0.21546278  0.77111652     0.65100
H1506       H  0.67861759  0.20395024  0.81772880     0.10500
C1507       C  0.65717156  0.10850497  0.81679931     0.63500
H1508       H  0.66443076  0.12140989  0.77036223     0.07900
F1509       F  0.59940413  0.14910420  0.71309932    -0.19600
F1510       F  0.60739752  0.12695106  0.68400375    -0.15800
F1511       F  0.62498130  0.17491719  0.68237649    -0.19300
F1512       F  0.72141268  0.15453698  0.75670742    -0.22700
F1513       F  0.73764251  0.20199710  0.75604062    -0.24200
F1514       F  0.74803279  0.18175148  0.72673469    -0.18100
F1515       F  0.65172316  0.08735868  0.80065544    -0.20600
F1516       F  0.63234574  0.09892208  0.82989685    -0.21800
F1517       F  0.67920918  0.11213209  0.83110404    -0.19000
F1518       F  0.68646806  0.23644047  0.78716108    -0.19100
F1519       F  0.65743441  0.20863932  0.75847858    -0.22900
F1520       F  0.70538900  0.22700808  0.75630888    -0.24500
C1521       C  0.85178426  0.36488857  0.27836916    -0.11300
C1522       C  0.85123807  0.34231112  0.26624327     0.11300
C1523       C  0.85006780  0.31928564  0.27858446    -0.03100
C1524       C  0.84865839  0.31932481  0.30299893    -0.05900
C1525       C  0.84864413  0.34165713  0.31525836    -0.16600
C1526       C  0.84994474  0.36478863  0.30275871     0.02300
C1527       C  0.85052680  0.34282980  0.24051943     0.12200
C1528       C  0.85048391  0.29494384  0.26600882     0.62900
H1529       H  0.84768664  0.30186314  0.31279846     0.12300
C1530       C  0.84722702  0.38809848  0.31475677     0.55000
H1531       H  0.85269434  0.38219278  0.26837467     0.08100
C1532       C  0.82452697  0.33388004  0.22840231    -0.05700
C1533       C  0.82538409  0.33520320  0.20402089    -0.06500
C1534       C  0.85108607  0.34461495  0.19155896    -0.16100
C1535       C  0.87681852  0.35245764  0.20364752    -0.01700
C1536       C  0.87629521  0.35228951  0.22813176    -0.09200
C1537       C  0.79590484  0.32251870  0.24109668     0.65100
H1538       H  0.80591037  0.32851810  0.19447872     0.10500
C1539       C  0.90399025  0.35890610  0.19076453     0.63500
H1540       H  0.89580944  0.35881404  0.23782961     0.07900
F1541       F  0.82151757  0.37539028  0.32705067    -0.19600
F1542       F  0.84701266  0.40721307  0.29903873    -0.15800
F1543       F  0.87021265  0.40382422  0.32965402    -0.19300
F1544       F  0.87659558  0.30577295  0.25456546    -0.22700
F1545       F  0.82831902  0.28217627  0.24997515    -0.24200
F1546       F  0.84715895  0.27373808  0.28122997    -0.18100
F1547       F  0.91415985  0.38337504  0.17728224    -0.20600
F1548       F  0.89779825  0.33579377  0.17660864    -0.21800
F1549       F  0.92573804  0.36337820  0.20587524    -0.19000
F1550       F  0.77301136  0.31292224  0.22580837    -0.19100
F1551       F  0.79706632  0.34410721  0.25460026    -0.22900
F1552       F  0.79021700  0.29961407  0.25524856    -0.24500
C1553       C  0.78125949  0.22034214  0.47013103    -0.11300
C1554       C  0.78053611  0.23391248  0.49068997     0.11300
C1555       C  0.79284474  0.26418918  0.49083927    -0.03100
C1556       C  0.80362766  0.27952638  0.46994058    -0.05900
C1557       C  0.80240366  0.26577296  0.44895864    -0.16600
C1558       C  0.79173313  0.23569624  0.44902877     0.02300
C1559       C  0.76467112  0.21621770  0.51145514     0.12200
C1560       C  0.79373260  0.28017495  0.51284878     0.62900
H1561       H  0.81206856  0.30249439  0.46958139     0.12300
C1562       C  0.78961905  0.21834463  0.42762233     0.55000
H1563       H  0.77229821  0.19725353  0.47032513     0.08100
C1564       C  0.73438214  0.20348398  0.51376168    -0.05700
C1565       C  0.72181558  0.19459757  0.53596031    -0.06500
C1566       C  0.73846721  0.19814512  0.55573714    -0.16100
C1567       C  0.76821237  0.20799577  0.55294061    -0.01700
C1568       C  0.78068981  0.21650669  0.53063597    -0.09200
C1569       C  0.71570314  0.20087890  0.49316758     0.65100
H1570       H  0.69904937  0.18663745  0.53832548     0.10500
C1571       C  0.78830335  0.21185024  0.57271209     0.63500
H1572       H  0.80374695  0.22565015  0.52853300     0.07900
F1573       F  0.76111796  0.19651408  0.42436082    -0.19600
F1574       F  0.80603262  0.20605259  0.43103367    -0.15800
F1575       F  0.79922713  0.23458255  0.40753943    -0.19300
F1576       F  0.81103599  0.27799132  0.52921194    -0.22700
F1577       F  0.76615229  0.26855497  0.52182918    -0.24200
F1578       F  0.80494040  0.30920983  0.50876486    -0.18100
F1579       F  0.80172838  0.19681469  0.56762827    -0.20600
F1580       F  0.77429758  0.20201139  0.59379823    -0.21800
F1581       F  0.80922606  0.24081531  0.57493030    -0.19000
F1582       F  0.68678987  0.18773846  0.49925866    -0.19100
F1583       F  0.71794083  0.18440895  0.47595092    -0.22900
F1584       F  0.72465254  0.22794696  0.48439246    -0.24500
C1585       C  0.85079791  0.54867979  0.72961807    -0.11300
C1586       C  0.85666597  0.52962110  0.74104117     0.11300
C1587       C  0.86232912  0.51112949  0.72786331    -0.03100
C1588       C  0.86198972  0.51251244  0.70346293    -0.05900
C1589       C  0.85599952  0.53149894  0.69187413    -0.16600
C1590       C  0.85056154  0.55019611  0.70517720     0.02300
C1591       C  0.85524473  0.52849444  0.76686005     0.12200
C1592       C  0.86887682  0.49015065  0.73949857     0.62900
H1593       H  0.86605811  0.49833613  0.69315232     0.12300
C1594       C  0.84502537  0.57202671  0.69388151     0.55000
H1595       H  0.84603767  0.56220926  0.74013707     0.08100
C1596       C  0.87820468  0.54911679  0.78094639    -0.05700
C1597       C  0.87536215  0.54605502  0.80527947    -0.06500
C1598       C  0.85049581  0.52314291  0.81572006    -0.16100
C1599       C  0.82718856  0.50298628  0.80162261    -0.01700
C1600       C  0.82992663  0.50628796  0.77732357    -0.09200
C1601       C  0.90537511  0.57438084  0.77035672     0.65100
H1602       H  0.89273198  0.56141501  0.81641761     0.10500
C1603       C  0.79933427  0.47849829  0.81209965     0.63500
H1604       H  0.81241195  0.49124223  0.76615095     0.07900
F1605       F  0.86646160  0.58828580  0.67773563    -0.19600
F1606       F  0.84490598  0.59085545  0.71002609    -0.15800
F1607       F  0.81839975  0.55784699  0.68302418    -0.19300
F1608       F  0.84555908  0.47053051  0.75283900    -0.22700
F1609       F  0.89286858  0.50509906  0.75359598    -0.24200
F1610       F  0.87449739  0.47475231  0.72340587    -0.18100
F1611       F  0.77861477  0.46312514  0.79529525    -0.20600
F1612       F  0.78806116  0.48941038  0.82764385    -0.21800
F1613       F  0.80462644  0.45952740  0.82358924    -0.19000
F1614       F  0.92620053  0.59001411  0.78702567    -0.19100
F1615       F  0.89862122  0.59273416  0.75955441    -0.22900
F1616       F  0.91718042  0.56464505  0.75417144    -0.24500
C1617       C  0.88383817  0.44309282  0.53678742    -0.11300
C1618       C  0.88109702  0.45214081  0.51468717     0.11300
C1619       C  0.87939831  0.47708332  0.51248250    -0.03100
C1620       C  0.87821616  0.49073201  0.53276039    -0.05900
C1621       C  0.87750149  0.47980024  0.55502842    -0.16600
C1622       C  0.88195415  0.45637018  0.55718767     0.02300
C1623       C  0.87306951  0.43130647  0.49541435     0.12200
C1624       C  0.87695020  0.48928015  0.48945415     0.62900
H1625       H  0.87614060  0.50935263  0.53107122     0.12300
C1626       C  0.88276252  0.44394131  0.58059314     0.55000
H1627       H  0.88507753  0.42391105  0.53790812     0.08100
C1628       C  0.89351036  0.43138837  0.48014980    -0.05700
C1629       C  0.88336955  0.41189455  0.46138648    -0.06500
C1630       C  0.85366862  0.39194350  0.45812653    -0.16100
C1631       C  0.83334514  0.39086654  0.47436568    -0.01700
C1632       C  0.84357413  0.41089038  0.49265959    -0.09200
C1633       C  0.92566568  0.45217896  0.48362790     0.65100
H1634       H  0.89856370  0.41220321  0.44898368     0.10500
C1635       C  0.80095324  0.36959020  0.47212342     0.63500
H1636       H  0.82855937  0.41109177  0.50496774     0.07900
F1637       F  0.88764340  0.42152782  0.57832912    -0.19600
F1638       F  0.85662181  0.43328494  0.59196555    -0.15800
F1639       F  0.90487983  0.46514304  0.59393934    -0.19300
F1640       F  0.85040738  0.48700405  0.48840366    -0.22700
F1641       F  0.87951543  0.47545410  0.47029197    -0.24200
F1642       F  0.89853974  0.51813275  0.48807276    -0.18100
F1643       F  0.79487734  0.34170984  0.47467929    -0.20600
F1644       F  0.79150712  0.37253488  0.45061508    -0.21800
F1645       F  0.78535975  0.37399242  0.48893650    -0.19000
F1646       F  0.94192309  0.44855430  0.46694128    -0.19100
F1647       F  0.93363401  0.44760660  0.50522717    -0.22900
F1648       F  0.93209665  0.48030103  0.48237590    -0.24500
C1649       C  0.77335820  0.36892719  0.62812491    -0.11300
C1650       C  0.78772215  0.36247315  0.64483176     0.11300
C1651       C  0.81121122  0.38490659  0.65712290    -0.03100
C1652       C  0.82111439  0.41365321  0.65089585    -0.05900
C1653       C  0.80796212  0.42032199  0.63294047    -0.16600
C1654       C  0.78262298  0.39745253  0.62211058     0.02300
C1655       C  0.77763406  0.33165174  0.64799997     0.12200
C1656       C  0.82558246  0.37825899  0.67656428     0.62900
H1657       H  0.83992079  0.43106496  0.65949465     0.12300
C1658       C  0.76486090  0.40247400  0.60449356     0.55000
H1659       H  0.75499557  0.35111462  0.61937828     0.08100
C1660       C  0.75132569  0.31249648  0.65955380    -0.05700
C1661       C  0.73778049  0.28289775  0.65500155    -0.06500
C1662       C  0.74921014  0.27205813  0.63891840    -0.16100
C1663       C  0.77684545  0.29085722  0.62905047    -0.01700
C1664       C  0.79080170  0.32054481  0.63403347    -0.09200
C1665       C  0.73562096  0.32206780  0.67554314     0.65100
H1666       H  0.71673229  0.26826529  0.66267939     0.10500
C1667       C  0.79040358  0.28009450  0.61192091     0.63500
H1668       H  0.81086454  0.33567583  0.62528799     0.07900
F1669       F  0.73860466  0.37745921  0.59996123    -0.19600
F1670       F  0.77968044  0.41201563  0.58364278    -0.15800
F1671       F  0.75891800  0.42254700  0.61303694    -0.19300
F1672       F  0.83871199  0.36436078  0.66762546    -0.22700
F1673       F  0.80507461  0.36056349  0.69283659    -0.24200
F1674       F  0.84634174  0.40306573  0.68780027    -0.18100
F1675       F  0.77264412  0.26792972  0.59282396    -0.20600
F1676       F  0.79430939  0.25965411  0.62256131    -0.21800
F1677       F  0.81708364  0.30216798  0.60405306    -0.19000
F1678       F  0.73079390  0.30833086  0.69676570    -0.19100
F1679       F  0.70924612  0.31433195  0.66586504    -0.22900
F1680       F  0.75083162  0.35146141  0.67956535    -0.24500
C1681       C  0.49997662  0.15480449  0.23136682    -0.11300
C1682       C  0.47339365  0.14617456  0.24206457     0.11300
C1683       C  0.44907381  0.13893841  0.22803638    -0.03100
C1684       C  0.45261518  0.14174519  0.20369994    -0.05900
C1685       C  0.47922976  0.15043721  0.19302352    -0.16600
C1686       C  0.50314819  0.15622056  0.20700011     0.02300
C1687       C  0.47233890  0.14684856  0.26798303     0.12200
C1688       C  0.41950864  0.12837603  0.23863554     0.62900
H1689       H  0.43452805  0.13719280  0.19274042     0.12300
C1690       C  0.53208430  0.16458410  0.19632358     0.55000
H1691       H  0.51839964  0.16073544  0.24237324     0.08100
C1692       C  0.47438717  0.12685365  0.28224981    -0.05700
C1693       C  0.47564447  0.13063382  0.30655438    -0.06500
C1694       C  0.47348448  0.15278577  0.31721285    -0.16100
C1695       C  0.46878334  0.17122298  0.30269700    -0.01700
C1696       C  0.46987243  0.16870692  0.27838473    -0.09200
C1697       C  0.47471808  0.10132008  0.27193698     0.65100
H1698       H  0.47828192  0.11599480  0.31744388     0.10500
C1699       C  0.46168146  0.19291555  0.31218908     0.63500
H1700       H  0.46861794  0.18388007  0.26707456     0.07900
F1701       F  0.52908374  0.14211360  0.18286518    -0.19600
F1702       F  0.55277269  0.17068141  0.21307192    -0.15800
F1703       F  0.54193926  0.18884205  0.18265449    -0.19300
F1704       F  0.41947789  0.15085372  0.24976495    -0.22700
F1705       F  0.41261193  0.10660781  0.25449165    -0.24200
F1706       F  0.39808373  0.11749436  0.22188373    -0.18100
F1707       F  0.45523787  0.20602446  0.29464741    -0.20600
F1708       F  0.48488610  0.21443343  0.32434785    -0.21800
F1709       F  0.43770918  0.17900821  0.32658787    -0.19000
F1710       F  0.47343481  0.08275773  0.28898713    -0.19100
F1711       F  0.49975597  0.11079512  0.25924072    -0.22900
F1712       F  0.45109703  0.08583508  0.25754845    -0.24500
C1713       C  0.54257996  0.14468154  0.49666594    -0.18500
C1714       C  0.56471564  0.13971307  0.49155370     0.11300
C1715       C  0.56843056  0.13306676  0.46857047    -0.03100
C1716       C  0.55219276  0.13564634  0.45073658    -0.05900
C1717       C  0.53233049  0.14428452  0.45547799    -0.16600
C1718       C  0.52610083  0.14696353  0.47908352     0.02300
C1719       C  0.58557974  0.14549259  0.51037940     0.12200
C1720       C  0.58955152  0.12358117  0.46308798     0.62900
H1721       H  0.55612832  0.13243448  0.43285602     0.12300
C1722       C  0.50386200  0.15433058  0.48614661     0.55000
H1723       H  0.53983084  0.14903293  0.51457273     0.08100
C1724       C  0.60856135  0.17403236  0.51494116    -0.05700
C1725       C  0.62498541  0.17929445  0.53512271    -0.06500
C1726       C  0.61854793  0.15732510  0.55121415    -0.16100
C1727       C  0.59618762  0.12857649  0.54625958    -0.01700
C1728       C  0.57998263  0.12313547  0.52573302    -0.09200
C1729       C  0.61464354  0.19921009  0.49934670     0.65100
H1730       H  0.64216160  0.20112416  0.53913749     0.10500
C1731       C  0.58965767  0.10379995  0.56233614     0.63500
H1732       H  0.56206972  0.10159071  0.52194637     0.07900
F1733       F  0.51525057  0.18347984  0.48261175    -0.19600
F1734       F  0.49646921  0.14834423  0.50940313    -0.15800
F1735       F  0.47880541  0.13825265  0.47338662    -0.19300
F1736       F  0.58148333  0.09850401  0.47516219    -0.22700
F1737       F  0.61725599  0.14462963  0.46960140    -0.24200
F1738       F  0.58996354  0.11816554  0.43960672    -0.18100
F1739       F  0.57792476  0.10624728  0.58293254    -0.20600
F1740       F  0.61483320  0.10421785  0.56695461    -0.21800
F1741       F  0.57012863  0.07732444  0.55254175    -0.19000
F1742       F  0.63954921  0.22456603  0.50586425    -0.19100
F1743       F  0.59185166  0.20362969  0.50062029    -0.22900
F1744       F  0.61814824  0.19359105  0.47654374    -0.24500
C1745       C  0.64130216  0.24125664  0.37689919    -0.11300
C1746       C  0.64707103  0.22552160  0.36093335     0.11300
C1747       C  0.62406321  0.20045948  0.35058766    -0.03100
C1748       C  0.59556614  0.19118207  0.35751248    -0.05900
C1749       C  0.58966840  0.20619676  0.37444711    -0.16600
C1750       C  0.61307000  0.23235672  0.38382497     0.02300
C1751       C  0.67792351  0.23581800  0.35690855     0.12200
C1752       C  0.62973760  0.18401532  0.33218953     0.62900
H1753       H  0.57772503  0.17155985  0.35019568     0.12300
C1754       C  0.60898261  0.25121338  0.40105791     0.55000
H1755       H  0.65951688  0.26042383  0.38446166     0.08100
C1756       C  0.69671894  0.26306988  0.34666351    -0.05700
C1757       C  0.72614105  0.27770978  0.35226672    -0.06500
C1758       C  0.73735916  0.26568107  0.36720413    -0.16100
C1759       C  0.71925030  0.23673363  0.37479925    -0.01700
C1760       C  0.68954114  0.22239283  0.36972546    -0.09200
C1761       C  0.68629833  0.27855111  0.33153915     0.65100
H1762       H  0.74033775  0.29938475  0.34571692     0.10500
C1763       C  0.73059439  0.22173221  0.38952305     0.63500
H1764       H  0.67475321  0.20165967  0.37762681     0.07900
F1765       F  0.63431095  0.27757677  0.40448694    -0.19600
F1766       F  0.60033647  0.23761877  0.42242097    -0.15800
F1767       F  0.58857123  0.25679753  0.39281074    -0.19300
F1768       F  0.64565617  0.17331690  0.34149603    -0.22700
F1769       F  0.64505474  0.20229715  0.31393626    -0.24200
F1770       F  0.60429615  0.16101364  0.32345588    -0.18100
F1771       F  0.74169721  0.23661151  0.41010342    -0.20600
F1772       F  0.75198289  0.22057549  0.37741004    -0.21800
F1773       F  0.70912493  0.19370084  0.39498297    -0.19000
F1774       F  0.70384092  0.28961446  0.31208483    -0.19100
F1775       F  0.68782517  0.30105761  0.34397932    -0.22900
F1776       F  0.65820829  0.26048398  0.32399011    -0.24500
C1777       C  0.51045470  0.34460645  0.73208552    -0.11300
C1778       C  0.48448450  0.33751088  0.74311372     0.11300
C1779       C  0.46031889  0.33144047  0.72935781    -0.03100
C1780       C  0.46333428  0.33336821  0.70489564    -0.05900
C1781       C  0.48949185  0.34078962  0.69381090    -0.16600
C1782       C  0.51311033  0.34527980  0.70766329     0.02300
C1783       C  0.48387559  0.33776781  0.76912625     0.12200
C1784       C  0.43151789  0.32300356  0.74047181     0.62900
H1785       H  0.44527161  0.32941562  0.69417271     0.12300
C1786       C  0.54015172  0.34845565  0.69689027     0.55000
H1787       H  0.52864789  0.34919451  0.74291337     0.08100
C1788       C  0.48158671  0.31503750  0.78273693    -0.05700
C1789       C  0.48213392  0.31743547  0.80717661    -0.06500
C1790       C  0.48604061  0.34218173  0.81865919    -0.16100
C1791       C  0.48920872  0.36542503  0.80472470    -0.01700
C1792       C  0.48781459  0.36248283  0.78025780    -0.09200
C1793       C  0.47907250  0.28851088  0.77152003     0.65100
H1794       H  0.47989974  0.29983044  0.81752250     0.10500
C1795       C  0.49464486  0.39361535  0.81504824     0.63500
H1796       H  0.49026284  0.37982185  0.76935827     0.07900
F1797       F  0.55909282  0.34969252  0.71355940    -0.19600
F1798       F  0.55463234  0.37334650  0.68388503    -0.15800
F1799       F  0.53244440  0.32496451  0.68276916    -0.19300
F1800       F  0.43462665  0.34533421  0.75415823    -0.22700
F1801       F  0.42184804  0.29875906  0.75415294    -0.24200
F1802       F  0.41053342  0.31681047  0.72397644    -0.18100
F1803       F  0.51952898  0.40634647  0.82829500    -0.20600
F1804       F  0.47142771  0.38854261  0.82866298    -0.21800
F1805       F  0.49830377  0.41324256  0.79804489    -0.19000
F1806       F  0.47588105  0.26841845  0.78789183    -0.19100
F1807       F  0.50372374  0.29640934  0.75872871    -0.22900
F1808       F  0.45537019  0.27536178  0.75697309    -0.24500
C1809       C  0.43025800  0.23690035  0.52952728    -0.11300
C1810       C  0.44924661  0.24610022  0.51051574     0.11300
C1811       C  0.47419094  0.27421659  0.51055609    -0.03100
C1812       C  0.48019233  0.29154241  0.53038923    -0.05900
C1813       C  0.46283541  0.28149327  0.55059174    -0.16600
C1814       C  0.43675637  0.25382855  0.54984051     0.02300
C1815       C  0.44512748  0.22482966  0.49227266     0.12200
C1816       C  0.49527343  0.28535028  0.49017404     0.62900
H1817       H  0.49972056  0.31271399  0.53059548     0.12300
C1818       C  0.41609082  0.24148401  0.57031477     0.55000
H1819       H  0.41113328  0.21541890  0.52886180     0.08100
C1820       C  0.45556485  0.20614210  0.49563732    -0.05700
C1821       C  0.45880595  0.19248511  0.47614266    -0.06500
C1822       C  0.45121994  0.19624833  0.45378937    -0.16100
C1823       C  0.43677459  0.21141129  0.45104894    -0.01700
C1824       C  0.43418884  0.22581973  0.47045748    -0.09200
C1825       C  0.46409317  0.20151796  0.51961626     0.65100
H1826       H  0.46859567  0.17967962  0.47802944     0.10500
C1827       C  0.42505850  0.21302511  0.42762810     0.63500
H1828       H  0.42519562  0.23934989  0.46846263     0.07900
F1829       F  0.42864667  0.23486076  0.58810796    -0.19600
F1830       F  0.39042770  0.21649825  0.56444925    -0.15800
F1831       F  0.40937219  0.26127458  0.57801754    -0.19300
F1832       F  0.48128095  0.28552661  0.47022061    -0.22700
F1833       F  0.50630886  0.26780531  0.48676327    -0.24200
F1834       F  0.51832030  0.31319043  0.49385372    -0.18100
F1835       F  0.41106225  0.22812188  0.42880642    -0.20600
F1836       F  0.40549470  0.18541062  0.41986336    -0.21800
F1837       F  0.44733506  0.22666822  0.41174307    -0.19000
F1838       F  0.47445715  0.18316231  0.51894816    -0.19100
F1839       F  0.44017954  0.18932727  0.53410414    -0.22900
F1840       F  0.48543211  0.22750730  0.52893203    -0.24500
C1841       C  0.64284088  0.44912652  0.64280099    -0.11300
C1842       C  0.66042310  0.44006125  0.63318062     0.11300
C1843       C  0.64782828  0.41236430  0.62310641    -0.03100
C1844       C  0.61764787  0.39535353  0.62142696    -0.05900
C1845       C  0.59968963  0.40509599  0.62937329    -0.16600
C1846       C  0.61249012  0.43221225  0.64111692     0.02300
C1847       C  0.69205394  0.46056325  0.63250560     0.12200
C1848       C  0.66624742  0.40103545  0.61377672     0.62900
H1849       H  0.60795943  0.37450649  0.61303489     0.12300
C1850       C  0.59493505  0.44389049  0.65171690     0.55000
H1851       H  0.65331334  0.47025425  0.65084016     0.08100
C1852       C  0.70529263  0.48079834  0.61419206    -0.05700
C1853       C  0.73556446  0.49590513  0.61205870    -0.06500
C1854       C  0.75240243  0.49101155  0.62751630    -0.16100
C1855       C  0.73934825  0.47272092  0.64696821    -0.01700
C1856       C  0.70911753  0.45786323  0.64926167    -0.09200
C1857       C  0.68738593  0.48536990  0.59647057     0.65100
H1858       H  0.74616071  0.51020120  0.59742309     0.10500
C1859       C  0.75734834  0.46895813  0.66509582     0.63500
H1860       H  0.69841111  0.44281617  0.66344268     0.07900
F1861       F  0.58244700  0.45123489  0.63445104    -0.19600
F1862       F  0.61192283  0.46836102  0.66496218    -0.15800
F1863       F  0.57356771  0.42350213  0.66604873    -0.19300
F1864       F  0.68167016  0.39867315  0.63176489    -0.22700
F1865       F  0.68535861  0.41963101  0.59713358    -0.24200
F1866       F  0.64961376  0.37407776  0.60365989    -0.18100
F1867       F  0.74055394  0.45185582  0.68343964    -0.20600
F1868       F  0.77787925  0.49565349  0.67388777    -0.21800
F1869       F  0.77111849  0.45614220  0.65530791    -0.19000
F1870       F  0.70458090  0.50581415  0.57997467    -0.19100
F1871       F  0.67122379  0.49477836  0.60758851    -0.22900
F1872       F  0.66893194  0.45979502  0.58503309    -0.24500
C1873       C  0.60793425  0.25889957  0.62871454    -0.11300
C1874       C  0.58058264  0.24129300  0.63890535     0.11300
C1875       C  0.57296122  0.21370986  0.64739780    -0.03100
C1876       C  0.59185271  0.20365271  0.64325893    -0.05900
C1877       C  0.61836099  0.22048661  0.63147538    -0.16600
C1878       C  0.62736058  0.24940305  0.62546843     0.02300
C1879       C  0.56032284  0.25221873  0.63932939     0.12200
C1880       C  0.54520354  0.19505770  0.66101004     0.62900
H1881       H  0.58544208  0.18199355  0.64849864     0.12300
C1882       C  0.65762007  0.27072442  0.61645498     0.55000
H1883       H  0.61379339  0.28018976  0.62283809     0.08100
C1884       C  0.56716532  0.27834275  0.65058397    -0.05700
C1885       C  0.55082107  0.29091671  0.64530738    -0.06500
C1886       C  0.52660950  0.27723475  0.63067573    -0.16100
C1887       C  0.51831364  0.25006949  0.62105005    -0.01700
C1888       C  0.53579038  0.23843336  0.62495801    -0.09200
C1889       C  0.59204826  0.29420604  0.66752568     0.65100
H1890       H  0.55752323  0.31203497  0.65223194     0.10500
C1891       C  0.49130339  0.23379223  0.60634733     0.63500
H1892       H  0.53119743  0.21914570  0.61573357     0.07900
F1893       F  0.66353108  0.29875496  0.61663049    -0.19600
F1894       F  0.66067053  0.26402880  0.59386480    -0.15800
F1895       F  0.67780462  0.26998811  0.63048687    -0.19300
F1896       F  0.52163289  0.18410057  0.64639724    -0.22700
F1897       F  0.54258429  0.21128864  0.67825521    -0.24200
F1898       F  0.54483042  0.17203166  0.67155361    -0.18100
F1899       F  0.49484669  0.24860406  0.58588692    -0.20600
F1900       F  0.46801526  0.23108961  0.61853983    -0.21800
F1901       F  0.48509000  0.20635471  0.60084014    -0.19000
F1902       F  0.58345253  0.30408162  0.68618032    -0.19100
F1903       F  0.61501906  0.31761953  0.65647992    -0.22900
F1904       F  0.60118087  0.27670420  0.67632616    -0.24500
C1905       C  0.68402665  0.50711708  0.28269417    -0.11300
C1906       C  0.67999290  0.52753500  0.27154797     0.11300
C1907       C  0.67605163  0.54705851  0.28494121    -0.03100
C1908       C  0.67640927  0.54540373  0.30935794    -0.05900
C1909       C  0.67991435  0.52454621  0.32050800    -0.16600
C1910       C  0.68437047  0.50538485  0.30699847     0.02300
C1911       C  0.67851316  0.52678598  0.24580106     0.12200
C1912       C  0.67075782  0.56896102  0.27347881     0.62900
H1913       H  0.67284099  0.55971600  0.31998728     0.12300
C1914       C  0.69072690  0.48350273  0.31687917     0.55000
H1915       H  0.68687379  0.49219728  0.27220047     0.08100
C1916       C  0.70354103  0.53875563  0.23163599    -0.05700
C1917       C  0.70016195  0.53642843  0.20734079    -0.06500
C1918       C  0.67269408  0.52214430  0.19691545    -0.16100
C1919       C  0.64761266  0.51027145  0.21128326    -0.01700
C1920       C  0.65112373  0.51261255  0.23554415    -0.09200
C1921       C  0.73361011  0.55354481  0.24215181     0.65100
H1922       H  0.71909275  0.54528109  0.19624153     0.10500
C1923       C  0.61723167  0.49574336  0.20138278     0.63500
H1924       H  0.63236230  0.50314778  0.24687823     0.07900
F1925       F  0.71749068  0.49003960  0.30881411    -0.19600
F1926       F  0.67009334  0.45619010  0.30923001    -0.15800
F1927       F  0.69118102  0.48309762  0.34085278    -0.19300
F1928       F  0.64461003  0.55483573  0.26191105    -0.22700
F1929       F  0.69261820  0.58548418  0.25775146    -0.24200
F1930       F  0.66986789  0.58739281  0.28959185    -0.18100
F1931       F  0.60980471  0.46957849  0.19151286    -0.20600
F1932       F  0.61584638  0.51321228  0.18475389    -0.21800
F1933       F  0.59689284  0.49056818  0.21834447    -0.19000
F1934       F  0.75500401  0.56584627  0.22528561    -0.19100
F1935       F  0.73701458  0.53365840  0.25429865    -0.22900
F1936       F  0.73754408  0.57517199  0.25715208    -0.24500
C1937       C  0.74467537  0.54318832  0.50408853    -0.11300
C1938       C  0.77362496  0.56509891  0.50060308     0.11300
C1939       C  0.78217504  0.57933231  0.47888951    -0.03100
C1940       C  0.76177588  0.56962789  0.46086724    -0.05900
C1941       C  0.73288417  0.54670872  0.46388508    -0.16600
C1942       C  0.72380093  0.53426249  0.48645255     0.02300
C1943       C  0.79470499  0.56852278  0.51862736     0.12200
C1944       C  0.81270859  0.60395368  0.47355001     0.62900
H1945       H  0.76897745  0.57975538  0.44396356     0.12300
C1946       C  0.69267412  0.51115419  0.49223154     0.55000
H1947       H  0.73879865  0.53193761  0.52059757     0.08100
C1948       C  0.79489039  0.57886558  0.54127879    -0.05700
C1949       C  0.81055273  0.57499231  0.55881883    -0.06500
C1950       C  0.82602409  0.56153380  0.55406191    -0.16100
C1951       C  0.82916966  0.55516110  0.53080112    -0.01700
C1952       C  0.81290337  0.55819178  0.51343227    -0.09200
C1953       C  0.77814885  0.59328554  0.54694343     0.65100
H1954       H  0.80870905  0.58010241  0.57671265     0.10500
C1955       C  0.84748643  0.54270672  0.52456062     0.63500
H1956       H  0.81297707  0.55084205  0.49591476     0.07900
F1957       F  0.68852974  0.50585689  0.51590241    -0.19600
F1958       F  0.68535355  0.48551166  0.48137642    -0.15800
F1959       F  0.67425494  0.52003017  0.48513514    -0.19300
F1960       F  0.82580417  0.59424188  0.45862779    -0.22700
F1961       F  0.82956868  0.61521681  0.49322817    -0.24200
F1962       F  0.81168261  0.62612352  0.46284577    -0.18100
F1963       F  0.83182937  0.51333800  0.52866186    -0.20600
F1964       F  0.87248105  0.55558056  0.53772746    -0.21800
F1965       F  0.85553645  0.54741366  0.50134795    -0.19000
F1966       F  0.78483975  0.60560345  0.56886478    -0.19100
F1967       F  0.74876781  0.57336968  0.54626575    -0.22900
F1968       F  0.78494962  0.61488259  0.53092993    -0.24500
C1969       C  0.56080341  0.42992767  0.47564588    -0.11300
C1970       C  0.55967642  0.45040863  0.48965457     0.11300
C1971       C  0.57504200  0.47973725  0.48247699    -0.03100
C1972       C  0.59312696  0.48783795  0.46274222    -0.05900
C1973       C  0.59593659  0.46757921  0.44980471    -0.16600
C1974       C  0.57819085  0.43783042  0.45554978     0.02300
C1975       C  0.54835700  0.44116006  0.51378094     0.12200
C1976       C  0.57380837  0.50339553  0.49528157     0.62900
H1977       H  0.60612439  0.51045852  0.45798912     0.12300
C1978       C  0.57732394  0.41428401  0.44066649     0.55000
H1979       H  0.54939512  0.40770051  0.48147599     0.08100
C1980       C  0.51879406  0.42134926  0.51902990    -0.05700
C1981       C  0.51125679  0.40863804  0.54141520    -0.06500
C1982       C  0.53243091  0.41544601  0.55842831    -0.16100
C1983       C  0.56146046  0.43766329  0.55377657    -0.01700
C1984       C  0.56889997  0.44997591  0.53148036    -0.09200
C1985       C  0.49556079  0.41333862  0.50092232     0.65100
H1986       H  0.48912002  0.39181441  0.54517371     0.10500
C1987       C  0.58450140  0.44874401  0.57243502     0.63500
H1988       H  0.59128278  0.46565058  0.52728008     0.07900
F1989       F  0.57316725  0.41835776  0.41762136    -0.19600
F1990       F  0.55487126  0.38717503  0.44723977    -0.15800
F1991       F  0.60281357  0.41462601  0.44281456    -0.19300
F1992       F  0.60063355  0.52246455  0.50473624    -0.22700
F1993       F  0.55336500  0.49294684  0.51286572    -0.24200
F1994       F  0.56684353  0.51816626  0.47973706    -0.18100
F1995       F  0.58956679  0.42746994  0.57917114    -0.20600
F1996       F  0.57520728  0.45745483  0.59129521    -0.21800
F1997       F  0.61051977  0.47218319  0.56489207    -0.19000
F1998       F  0.46813508  0.39794185  0.51060776    -0.19100
F1999       F  0.49741521  0.39659518  0.48375988    -0.22900
F2000       F  0.49907847  0.43810686  0.49098087    -0.24500
C2001       C  0.56044064  0.30521444  0.35709593    -0.11300
C2002       C  0.55482940  0.32234901  0.37151628     0.11300
C2003       C  0.52911153  0.30975820  0.38484450    -0.03100
C2004       C  0.51216718  0.27953486  0.38627879    -0.05900
C2005       C  0.52029098  0.26231201  0.37446260    -0.16600
C2006       C  0.54345771  0.27513932  0.35825550     0.02300
C2007       C  0.57762868  0.35295552  0.37380028     0.12200
C2008       C  0.52036895  0.32818862  0.39801678     0.62900
H2009       H  0.49413488  0.26940817  0.39825973     0.12300
C2010       C  0.55169819  0.25844856  0.34218305     0.55000
H2011       H  0.57940778  0.31542499  0.34594851     0.08100
C2012       C  0.60062939  0.36210983  0.38977057    -0.05700
C2013       C  0.62077578  0.39177462  0.39202879    -0.06500
C2014       C  0.61874521  0.41201442  0.37848737    -0.16100
C2015       C  0.59760285  0.40235142  0.36068995    -0.01700
C2016       C  0.57680306  0.37284990  0.35910916    -0.09200
C2017       C  0.60355752  0.34068103  0.40457264     0.65100
H2018       H  0.63735649  0.39942977  0.40524098     0.10500
C2019       C  0.59627462  0.42256949  0.34339449     0.63500
H2020       H  0.55958507  0.36514151  0.34642666     0.07900
F2021       F  0.57996554  0.26634051  0.34638421    -0.19600
F2022       F  0.54962514  0.26530753  0.31941619    -0.15800
F2023       F  0.53422459  0.22889471  0.34466775    -0.19300
F2024       F  0.51710007  0.34566894  0.38254428    -0.22700
F2025       F  0.54137043  0.34530024  0.41403443    -0.24200
F2026       F  0.49444277  0.31153588  0.40978657    -0.18100
F2027       F  0.58477418  0.40861523  0.32248393    -0.20600
F2028       F  0.62357253  0.44588895  0.33872656    -0.21800
F2029       F  0.57905345  0.43213716  0.35217156    -0.19000
F2030       F  0.62720377  0.35433447  0.41923483    -0.19100
F2031       F  0.60708229  0.32223822  0.39037486    -0.22900
F2032       F  0.57909339  0.32470607  0.41811689    -0.24500
C2033       C  0.78219130  0.47916194  0.39816468    -0.11300
C2034       C  0.77975702  0.46687212  0.37625168     0.11300
C2035       C  0.76570252  0.47220213  0.35808968    -0.03100
C2036       C  0.75175415  0.48732413  0.36319340    -0.05900
C2037       C  0.75135390  0.49678657  0.38587060    -0.16600
C2038       C  0.76852392  0.49442305  0.40327110     0.02300
C2039       C  0.78901948  0.44572136  0.37391508     0.12200
C2040       C  0.76527736  0.46148139  0.33363894     0.62900
H2041       H  0.73953862  0.49016074  0.34984508     0.12300
C2042       C  0.77220957  0.50753617  0.42730977     0.55000
H2043       H  0.79362502  0.47534575  0.41169496     0.08100
C2044       C  0.81834842  0.45365125  0.37247248    -0.05700
C2045       C  0.82493547  0.43197629  0.37474635    -0.06500
C2046       C  0.80321483  0.40284546  0.37793450    -0.16100
C2047       C  0.77382669  0.39473654  0.37719514    -0.01700
C2048       C  0.76729880  0.41645677  0.37581130    -0.09200
C2049       C  0.84342923  0.48432118  0.36865370     0.65100
H2050       H  0.84739820  0.43803747  0.37474520     0.10500
C2051       C  0.74945819  0.36330372  0.37685840     0.63500
H2052       H  0.74499063  0.41077363  0.37672735     0.07900
F2053       F  0.79562828  0.50973103  0.43880194    -0.19600
F2054       F  0.74778019  0.49059545  0.44065719    -0.15800
F2055       F  0.77697977  0.53502223  0.42543614    -0.19300
F2056       F  0.75009226  0.43166697  0.33326601    -0.22700
F2057       F  0.79331388  0.47192906  0.32620996    -0.24200
F2058       F  0.75241527  0.47059571  0.31806929    -0.18100
F2059       F  0.74695441  0.35061933  0.39822094    -0.20600
F2060       F  0.75510226  0.34888185  0.35991507    -0.21800
F2061       F  0.72313245  0.36030282  0.37176085    -0.19000
F2062       F  0.85853490  0.48509041  0.34897170    -0.19100
F2063       F  0.86179347  0.49295110  0.38755464    -0.22900
F2064       F  0.83485710  0.50390336  0.36559826    -0.24500
C2065       C  0.54246184  0.70200698  0.22421982    -0.11300
C2066       C  0.52961091  0.67553652  0.23597552     0.11300
C2067       C  0.51769535  0.64957564  0.22317984    -0.03100
C2068       C  0.51804393  0.65098224  0.19880679    -0.05900
C2069       C  0.53046726  0.67739431  0.18682652    -0.16600
C2070       C  0.54389602  0.70355870  0.19974066     0.02300
C2071       C  0.52827765  0.67542027  0.26175497     0.12200
C2072       C  0.50455974  0.62047983  0.23522900     0.62900
H2073       H  0.50831440  0.63119335  0.18881273     0.12300
C2074       C  0.55914541  0.73292953  0.18806173     0.55000
H2075       H  0.55131741  0.72150851  0.23450266     0.08100
C2076       C  0.55219629  0.68134159  0.27564852    -0.05700
C2077       C  0.54843540  0.67829817  0.29988038    -0.06500
C2078       C  0.52174795  0.66955962  0.31051639    -0.16100
C2079       C  0.49828113  0.66526098  0.29663765    -0.01700
C2080       C  0.50208625  0.66841660  0.27237177    -0.09200
C2081       C  0.58143522  0.69062965  0.26491538     0.65100
H2082       H  0.56638605  0.68241456  0.31075724     0.10500
C2083       C  0.46960320  0.65800810  0.30732102     0.63500
H2084       H  0.48434031  0.66473097  0.26132947     0.07900
F2085       F  0.58209882  0.73639742  0.17489023    -0.19600
F2086       F  0.57003213  0.75522239  0.20407293    -0.15800
F2087       F  0.54003579  0.73535503  0.17399577    -0.19300
F2088       F  0.48052477  0.61485913  0.24795147    -0.22700
F2089       F  0.52460068  0.62055505  0.25000275    -0.24200
F2090       F  0.49602572  0.59819118  0.21948147    -0.18100
F2091       F  0.47426138  0.67746166  0.32481150    -0.20600
F2092       F  0.45556127  0.63039999  0.31642230    -0.21800
F2093       F  0.45155196  0.65921303  0.29106013    -0.19000
F2094       F  0.60155415  0.69467884  0.28158020    -0.19100
F2095       F  0.59202975  0.71639762  0.25315837    -0.22900
F2096       F  0.57874709  0.66985094  0.24951567    -0.24500
C2097       C  0.61816810  0.64350512  0.37323217    -0.11300
C2098       C  0.62446405  0.63894875  0.39580419     0.11300
C2099       C  0.61541808  0.64853137  0.41505346    -0.03100
C2100       C  0.59647600  0.65846628  0.41113611    -0.05900
C2101       C  0.58705292  0.65932091  0.38861262    -0.16600
C2102       C  0.59956041  0.65366035  0.36927163     0.02300
C2103       C  0.63603484  0.61977095  0.39851810     0.12200
C2104       C  0.62533970  0.64759858  0.43947832     0.62900
H2105       H  0.58762312  0.66402013  0.42568846     0.12300
C2106       C  0.59334305  0.65843555  0.34457828     0.55000
H2107       H  0.62618483  0.63693162  0.35872992     0.08100
C2108       C  0.61686857  0.58950947  0.39972436    -0.05700
C2109       C  0.62848030  0.57188743  0.40088804    -0.06500
C2110       C  0.65834001  0.58309499  0.39885071    -0.16100
C2111       C  0.67757536  0.61338234  0.39696218    -0.01700
C2112       C  0.66601210  0.63137382  0.39734646    -0.09200
C2113       C  0.58421242  0.57565155  0.39790646     0.65100
H2114       H  0.61397660  0.54871167  0.40201844     0.10500
C2115       C  0.70974726  0.62643776  0.39323256     0.63500
H2116       H  0.68014152  0.65455012  0.39578198     0.07900
F2117       F  0.61104959  0.65590700  0.32864635    -0.19600
F2118       F  0.59823626  0.68596002  0.34271075    -0.15800
F2119       F  0.56496347  0.63840341  0.33889866    -0.19300
F2120       F  0.65523358  0.66338058  0.44016671    -0.22700
F2121       F  0.61550835  0.61947076  0.44591721    -0.24200
F2122       F  0.61527648  0.65922768  0.45558404    -0.18100
F2123       F  0.72406179  0.65590654  0.38944140    -0.20600
F2124       F  0.71430335  0.61397173  0.37401878    -0.21800
F2125       F  0.72160024  0.62167588  0.41264435    -0.19000
F2126       F  0.56960776  0.54594298  0.40022937    -0.19100
F2127       F  0.57742026  0.58172807  0.37638125    -0.22900
F2128       F  0.57418974  0.58607850  0.41501770    -0.24500
C2129       C  0.35654338  0.89048548  0.22103659    -0.11300
C2130       C  0.35267608  0.86678332  0.23379527     0.11300
C2131       C  0.34860619  0.84198268  0.22218346    -0.03100
C2132       C  0.34931996  0.84208378  0.19784058    -0.05900
C2133       C  0.35353307  0.86585976  0.18508332    -0.16600
C2134       C  0.35738296  0.89059537  0.19660714     0.02300
C2135       C  0.35357048  0.86852528  0.25940780     0.12200
C2136       C  0.34339938  0.81553407  0.23545102     0.62900
H2137       H  0.34643596  0.82345896  0.18846697     0.12300
C2138       C  0.36379226  0.91733256  0.18319010     0.55000
H2139       H  0.35951116  0.90911077  0.23043598     0.08100
C2140       C  0.37987060  0.88073046  0.27166410    -0.05700
C2141       C  0.37882515  0.87786624  0.29593701    -0.06500
C2142       C  0.35247647  0.86433189  0.30830476    -0.16100
C2143       C  0.32619733  0.85435205  0.29588725    -0.01700
C2144       C  0.32737430  0.85636357  0.27149182    -0.09200
C2145       C  0.40882272  0.89695649  0.25910354     0.65100
H2146       H  0.39884721  0.88651081  0.30548892     0.10500
C2147       C  0.29693791  0.84125318  0.30783677     0.63500
H2148       H  0.30772442  0.84796699  0.26144480     0.07900
F2149       F  0.38856445  0.92713694  0.16996921    -0.19600
F2150       F  0.36813696  0.93943572  0.19786719    -0.15800
F2151       F  0.34094628  0.91091900  0.16868737    -0.19300
F2152       F  0.31779827  0.80380905  0.24782202    -0.22700
F2153       F  0.36584109  0.82302495  0.25073255    -0.24200
F2154       F  0.34142676  0.79445010  0.22070163    -0.18100
F2155       F  0.27457988  0.83193318  0.29203621    -0.20600
F2156       F  0.29659810  0.86168297  0.32192161    -0.21800
F2157       F  0.29151389  0.81769285  0.32098477    -0.19000
F2158       F  0.43180856  0.90645836  0.27426577    -0.19100
F2159       F  0.41160394  0.92082312  0.24806340    -0.22900
F2160       F  0.41067629  0.87938443  0.24272647    -0.24500
C2161       C  0.34685922  0.96595692  0.39767528    -0.11300
C2162       C  0.37611980  0.98775321  0.39977493     0.11300
C2163       C  0.39743891  0.98039085  0.40159474    -0.03100
C2164       C  0.38900179  0.95151946  0.39865694    -0.05900
C2165       C  0.36015181  0.92991192  0.39439255    -0.16600
C2166       C  0.33832751  0.93673616  0.39528847     0.02300
C2167       C  0.38470682  0.01836538  0.39825399     0.12200
C2168       C  0.42918143  0.00302139  0.40567672     0.62900
H2169       H  0.40520210  0.94565217  0.39888570     0.12300
C2170       C  0.30653625  0.91363243  0.39305527     0.55000
H2171       H  0.33094224  0.97217655  0.39710611     0.08100
C2172       C  0.39126644  0.03264039  0.37649605    -0.05700
C2173       C  0.40713627  0.06296113  0.37618693    -0.06500
C2174       C  0.41723954  0.07886467  0.39682654    -0.16100
C2175       C  0.40854013  0.06460471  0.41854405    -0.01700
C2176       C  0.39146451  0.03431948  0.41888267    -0.09200
C2177       C  0.38297713  0.01586493  0.35379440     0.65100
H2178       H  0.41403834  0.07442981  0.35977515     0.10500
C2179       C  0.41923633  0.08119440  0.44116369     0.63500
H2180       H  0.38596023  0.02283251  0.43528938     0.07900
F2181       F  0.30167526  0.89919958  0.37215798    -0.19600
F2182       F  0.28915008  0.92519241  0.39383022    -0.15800
F2183       F  0.29841631  0.89422270  0.41121983    -0.19300
F2184       F  0.43222586  0.01744552  0.42627225    -0.22700
F2185       F  0.43982173  0.02262493  0.38756348    -0.24200
F2186       F  0.44596122  0.99083441  0.40724214    -0.18100
F2187       F  0.40459546  0.06400703  0.46015301    -0.20600
F2188       F  0.41523384  0.10426355  0.44104887    -0.21800
F2189       F  0.44832652  0.09133167  0.44372489    -0.19000
F2190       F  0.39180789  0.03396200  0.33465268    -0.19100
F2191       F  0.35326519  0.99772866  0.35279577    -0.22900
F2192       F  0.39563176  0.99954375  0.35230314    -0.24500
C2193       C  0.48746108  0.77628186  0.35078280    -0.11300
C2194       C  0.46416889  0.77247679  0.36434401     0.11300
C2195       C  0.45211757  0.75082158  0.38163727    -0.03100
C2196       C  0.46408645  0.73381891  0.38488307    -0.05900
C2197       C  0.48817605  0.73800739  0.37207752    -0.16600
C2198       C  0.50008050  0.75959877  0.35453301     0.02300
C2199       C  0.45245058  0.79131917  0.36058843     0.12200
C2200       C  0.42698749  0.74590199  0.39702123     0.62900
H2201       H  0.45455703  0.71699689  0.39791187     0.12300
C2202       C  0.52629927  0.76573348  0.34035310     0.55000
H2203       H  0.49594916  0.79281343  0.33747955     0.08100
C2204       C  0.46442496  0.81838389  0.37178956    -0.05700
C2205       C  0.44784082  0.83130552  0.37300783    -0.06500
C2206       C  0.41961630  0.81738217  0.36408824    -0.16100
C2207       C  0.40913832  0.79197917  0.35062642    -0.01700
C2208       C  0.42607236  0.77954549  0.34886003    -0.09200
C2209       C  0.49367931  0.83250380  0.38366039     0.65100
H2210       H  0.45577415  0.85105853  0.38279482     0.10500
C2211       C  0.37911658  0.77614292  0.34010960     0.63500
H2212       H  0.41750045  0.75897104  0.34015012     0.07900
F2213       F  0.53517345  0.78876887  0.32534215    -0.19600
F2214       F  0.51976549  0.74180246  0.32716804    -0.15800
F2215       F  0.54908782  0.77244928  0.35505568    -0.19300
F2216       F  0.40255812  0.73676257  0.38371152    -0.22700
F2217       F  0.43399708  0.77119871  0.40829952    -0.24200
F2218       F  0.42019443  0.72510541  0.41385061    -0.18100
F2219       F  0.37752735  0.75906285  0.32161837    -0.20600
F2220       F  0.37188566  0.79540278  0.33188506    -0.21800
F2221       F  0.35932007  0.75861190  0.35684760    -0.19000
F2222       F  0.50148019  0.85898181  0.39320624    -0.19100
F2223       F  0.51467266  0.83691325  0.36766983    -0.22900
F2224       F  0.49299789  0.81496389  0.40132325    -0.24500
C2225       C  0.14081715  0.50055649  0.22682890    -0.11300
C2226       C  0.15730606  0.49072983  0.23727348     0.11300
C2227       C  0.17197084  0.48123038  0.22306451    -0.03100
C2228       C  0.17075875  0.48329992  0.19866690    -0.05900
C2229       C  0.15495174  0.49404051  0.18788714    -0.16600
C2230       C  0.13932215  0.50256141  0.20245165     0.02300
C2231       C  0.15828843  0.49030219  0.26323308     0.12200
C2232       C  0.18877534  0.46890360  0.23371593     0.62900
H2233       H  0.18232158  0.47640763  0.18779411     0.12300
C2234       C  0.12138871  0.51419196  0.19280211     0.55000
H2235       H  0.12925235  0.50699833  0.23819069     0.08100
C2236       C  0.17681497  0.51544930  0.27629610    -0.05700
C2237       C  0.17562241  0.51376557  0.30074590    -0.06500
C2238       C  0.15658702  0.48796011  0.31259263    -0.16100
C2239       C  0.13810809  0.46272780  0.29947455    -0.01700
C2240       C  0.13915932  0.46449429  0.27495065    -0.09200
C2241       C  0.19749909  0.54407431  0.26448516     0.65100
H2242       H  0.18951244  0.53289103  0.31091602     0.10500
C2243       C  0.11675901  0.43429999  0.31117260     0.63500
H2244       H  0.12485268  0.44568163  0.26460230     0.07900
F2245       F  0.13875404  0.53861404  0.17962689    -0.19600
F2246       F  0.10900955  0.52180671  0.21024256    -0.15800
F2247       F  0.09913063  0.49334051  0.17932641    -0.19300
F2248       F  0.17044443  0.44486012  0.24691739    -0.22700
F2249       F  0.21051600  0.48927551  0.24780111    -0.24200
F2250       F  0.20132017  0.46065819  0.21691734    -0.18100
F2251       F  0.09911698  0.41335704  0.29521593    -0.20600
F2252       F  0.09920930  0.43812195  0.32632579    -0.21800
F2253       F  0.13162703  0.42422878  0.32329499    -0.19000
F2254       F  0.21399474  0.56561070  0.28043078    -0.19100
F2255       F  0.18212732  0.55285401  0.25151576    -0.22900
F2256       F  0.21614188  0.54118217  0.24997711    -0.24500
C2257       C  0.96337287  0.36110923  0.41462824    -0.11300
C2258       C  0.98045154  0.37295288  0.39458887     0.11300
C2259       C  0.96701337  0.37080061  0.37296317    -0.03100
C2260       C  0.93695690  0.35897008  0.37250050    -0.05900
C2261       C  0.92033527  0.34961313  0.39289649    -0.16600
C2262       C  0.93329485  0.34952882  0.41413634     0.02300
C2263       C  0.01241035  0.39110894  0.39706044     0.12200
C2264       C  0.98455365  0.38194830  0.35064858     0.62900
H2265       H  0.92642264  0.35845199  0.35640819     0.12300
C2266       C  0.91529806  0.33749429  0.43608152     0.55000
H2267       H  0.97402507  0.36257602  0.43088724     0.08100
C2268       C  0.02600871  0.42087961  0.40217658    -0.05700
C2269       C  0.05613832  0.43838977  0.39979417    -0.06500
C2270       C  0.07316438  0.42696967  0.39363832    -0.16100
C2271       C  0.05990180  0.39669675  0.39114272    -0.01700
C2272       C  0.02941016  0.37918866  0.39244391    -0.09200
C2273       C  0.00870844  0.43411815  0.40996926     0.65100
H2274       H  0.06673930  0.46145465  0.40246871     0.10500
C2275       C  0.07769161  0.38314859  0.38656287     0.63500
H2276       H  0.01852666  0.35620440  0.38925183     0.07900
F2277       F  0.90411399  0.35419724  0.44249544    -0.19600
F2278       F  0.93148271  0.33704299  0.45441212    -0.15800
F2279       F  0.89275362  0.30951586  0.43208715    -0.19300
F2280       F  0.99816119  0.36695374  0.34625317    -0.22700
F2281       F  0.00519720  0.41101222  0.35266527    -0.24200
F2282       F  0.96733950  0.37847975  0.33172323    -0.18100
F2283       F  0.06045427  0.35349198  0.38407744    -0.20600
F2284       F  0.09615350  0.38883756  0.40503803    -0.21800
F2285       F  0.09372716  0.39440763  0.36641546    -0.19000
F2286       F  0.02618023  0.46359677  0.41342919    -0.19100
F2287       F  0.99490076  0.42171667  0.43075078    -0.22900
F2288       F  0.98826503  0.42946185  0.39346799    -0.24500
C2289       C  0.21485481  0.64137189  0.35308851    -0.11300
C2290       C  0.23873665  0.66029873  0.36668581     0.11300
C2291       C  0.24864384  0.64934332  0.38418793    -0.03100
C2292       C  0.23427140  0.61935640  0.38729236    -0.05900
C2293       C  0.20971684  0.60018388  0.37422395    -0.16600
C2294       C  0.19986119  0.61131466  0.35663602     0.02300
C2295       C  0.25178851  0.69174131  0.36378211     0.12200
C2296       C  0.27360669  0.66933097  0.40013250     0.62900
H2297       H  0.24138024  0.61071557  0.40084417     0.12300
C2298       C  0.17372136  0.59186125  0.34165636     0.55000
H2299       H  0.20753020  0.65050080  0.34012188     0.08100
C2300       C  0.27568999  0.70845272  0.34889936    -0.05700
C2301       C  0.29148283  0.73869173  0.35152793    -0.06500
C2302       C  0.28375599  0.75200018  0.36849668    -0.16100
C2303       C  0.25796456  0.73533376  0.38148243    -0.01700
C2304       C  0.24206513  0.70530313  0.37860009    -0.09200
C2305       C  0.28449458  0.69419460  0.33076114     0.65100
H2306       H  0.31081266  0.75198641  0.34127806     0.10500
C2307       C  0.24830795  0.74901679  0.39940440     0.63500
H2308       H  0.22326933  0.69193753  0.38940712     0.07900
F2309       F  0.17100678  0.60679181  0.32340358    -0.19600
F2310       F  0.14877211  0.58021430  0.35492117    -0.15800
F2311       F  0.17631660  0.56992549  0.33229814    -0.19300
F2312       F  0.26617899  0.68573988  0.41331592    -0.22700
F2313       F  0.29800743  0.68752868  0.38718315    -0.24200
F2314       F  0.28057041  0.65415033  0.41523909    -0.18100
F2315       F  0.22083189  0.72964440  0.40779975    -0.20600
F2316       F  0.24798209  0.77200560  0.38959253    -0.21800
F2317       F  0.26714655  0.75863661  0.41794788    -0.19000
F2318       F  0.30877252  0.71424784  0.31845974    -0.19100
F2319       F  0.26208422  0.67922800  0.31519155    -0.22900
F2320       F  0.29054804  0.67510182  0.34116506    -0.24500
C2321       C  0.35940054  0.59996768  0.37526426    -0.11300
C2322       C  0.34845687  0.57145696  0.36828316     0.11300
C2323       C  0.36761072  0.56315637  0.36031261    -0.03100
C2324       C  0.39760519  0.58277480  0.36276367    -0.05900
C2325       C  0.40887825  0.61062982  0.37224884    -0.16600
C2326       C  0.38929125  0.61998092  0.37726311     0.02300
C2327       C  0.31693285  0.55067266  0.37140374     0.12200
C2328       C  0.35626767  0.53377379  0.34931121     0.62900
H2329       H  0.41242988  0.57608513  0.35779315     0.12300
C2330       C  0.39916303  0.65045635  0.38521108     0.55000
H2331       H  0.34402209  0.60593455  0.38033779     0.08100
C2332       C  0.30532341  0.53927212  0.39365085    -0.05700
C2333       C  0.27522651  0.52426799  0.39671283    -0.06500
C2334       C  0.25643389  0.52014485  0.37837809    -0.16100
C2335       C  0.26789148  0.52932678  0.35564542    -0.01700
C2336       C  0.29821388  0.54496192  0.35264451    -0.09200
C2337       C  0.32466381  0.54361992  0.41428441     0.65100
H2338       H  0.26609266  0.51657240  0.41386083     0.10500
C2339       C  0.24845092  0.52381542  0.33490765     0.63500
H2340       H  0.30763274  0.55387582  0.33580617     0.07900
F2341       F  0.41248112  0.65585176  0.40665404    -0.19600
F2342       F  0.37629496  0.65472001  0.38748280    -0.15800
F2343       F  0.41807644  0.67009655  0.36897660    -0.19300
F2344       F  0.34043646  0.53124360  0.32971242    -0.22700
F2345       F  0.33866103  0.51213123  0.36479592    -0.24200
F2346       F  0.37846947  0.52984705  0.34265778    -0.18100
F2347       F  0.23237354  0.53645582  0.33856212    -0.20600
F2348       F  0.23003659  0.49441286  0.33182294    -0.21800
F2349       F  0.26416026  0.53502549  0.31457208    -0.19000
F2350       F  0.30875418  0.52936732  0.43393526    -0.19100
F2351       F  0.34174314  0.57261356  0.41961569    -0.22900
F2352       F  0.34224300  0.53306319  0.40903174    -0.24500
C2353       C  0.55837666  0.87909655  0.72025164    -0.11300
C2354       C  0.53483072  0.85495261  0.73086199     0.11300
C2355       C  0.51271308  0.83298778  0.71694876    -0.03100
C2356       C  0.51558010  0.83560330  0.69261479    -0.05900
C2357       C  0.53889679  0.85997056  0.68202483    -0.16600
C2358       C  0.56075313  0.88207873  0.69591515     0.02300
C2359       C  0.53333564  0.85430080  0.75664564     0.12200
C2360       C  0.48574598  0.80753277  0.72766781     0.62900
H2361       H  0.49913120  0.81899875  0.68157008     0.12300
C2362       C  0.58671053  0.90825858  0.68503875     0.55000
H2363       H  0.57476610  0.89576145  0.73129180     0.08100
C2364       C  0.54710516  0.84353000  0.77035306    -0.05700
C2365       C  0.54501334  0.84417973  0.79474576    -0.06500
C2366       C  0.53029166  0.85592411  0.80591699    -0.16100
C2367       C  0.51702173  0.86730021  0.79178338    -0.01700
C2368       C  0.51890798  0.86621259  0.76742062    -0.09200
C2369       C  0.56484963  0.83244721  0.75923316     0.65100
H2370       H  0.55546239  0.83585752  0.80531796     0.10500
C2371       C  0.49970429  0.87933027  0.80186680     0.63500
H2372       H  0.50898606  0.87467201  0.75633710     0.07900
F2373       F  0.60074313  0.89940678  0.67030417    -0.19600
F2374       F  0.60630100  0.92635190  0.70163309    -0.15800
F2375       F  0.57776671  0.92384592  0.67256433    -0.19300
F2376       F  0.47032004  0.81732324  0.73943829    -0.22700
F2377       F  0.49313265  0.79303461  0.74306588    -0.24200
F2378       F  0.46782292  0.78800658  0.71095911    -0.18100
F2379       F  0.48758886  0.88762818  0.78482503    -0.20600
F2380       F  0.51722100  0.90330268  0.81539107    -0.21800
F2381       F  0.47738485  0.85821414  0.81498825    -0.19000
F2382       F  0.57438576  0.82062131  0.77550262    -0.19100
F2383       F  0.58875725  0.85502737  0.74834071    -0.22900
F2384       F  0.54862611  0.81139430  0.74294823    -0.24500
C2385       C  0.61998882  0.98689203  0.58695644    -0.11300
C2386       C  0.63380417  0.00002896  0.60789058     0.11300
C2387       C  0.63481292  0.98276782  0.62587795    -0.03100
C2388       C  0.61929322  0.95249184  0.62308140    -0.05900
C2389       C  0.60282695  0.93929248  0.60307582    -0.16600
C2390       C  0.60535140  0.95685893  0.58394355     0.02300
C2391       C  0.64302518  0.03084819  0.61147808     0.12200
C2392       C  0.65056940  0.99602217  0.64850259     0.62900
H2393       H  0.61757083  0.93888872  0.63746296     0.12300
C2394       C  0.59247317  0.94489045  0.56022107     0.55000
H2395       H  0.61958065  0.00012415  0.57307890     0.08100
C2396       C  0.66809370  0.05421716  0.60104197    -0.05700
C2397       C  0.67370768  0.08247856  0.60405130    -0.06500
C2398       C  0.65470783  0.08780661  0.61655477    -0.16100
C2399       C  0.62987448  0.06440634  0.62722728    -0.01700
C2400       C  0.62440523  0.03630519  0.62431276    -0.09200
C2401       C  0.68862655  0.04929390  0.58668520     0.65100
H2402       H  0.69266785  0.10064457  0.59616187     0.10500
C2403       C  0.60964068  0.06911107  0.64222083     0.63500
H2404       H  0.60511928  0.01808703  0.63180073     0.07900
F2405       F  0.61378745  0.95861074  0.54345433    -0.19600
F2406       F  0.57066031  0.95011732  0.55573907    -0.15800
F2407       F  0.58144485  0.91557634  0.55837843    -0.19300
F2408       F  0.63616241  0.00637215  0.66103589    -0.22700
F2409       F  0.67842772  0.01850631  0.64395610    -0.24200
F2410       F  0.65230014  0.97605736  0.66214033    -0.18100
F2411       F  0.58870908  0.04388352  0.65294206    -0.20600
F2412       F  0.59572376  0.07910250  0.62871985    -0.21800
F2413       F  0.62528321  0.08904371  0.65942189    -0.19000
F2414       F  0.71252277  0.07503206  0.57930138    -0.19100
F2415       F  0.67461545  0.03310075  0.56721412    -0.22900
F2416       F  0.69829512  0.03477161  0.59975879    -0.24500
C2417       C  0.54584903  0.74438325  0.49131734    -0.11300
C2418       C  0.55910370  0.77360701  0.48538151     0.11300
C2419       C  0.56904910  0.78264190  0.46247066    -0.03100
C2420       C  0.56254808  0.76150568  0.44550326    -0.05900
C2421       C  0.54635679  0.73175058  0.45076737    -0.16600
C2422       C  0.53945476  0.72311030  0.47442705     0.02300
C2423       C  0.55924485  0.79345822  0.50305837     0.12200
C2424       C  0.58530856  0.81436058  0.45589044     0.62900
H2425       H  0.56859697  0.76823883  0.42763467     0.12300
C2426       C  0.52504538  0.69182564  0.48209242     0.55000
H2427       H  0.53903029  0.73818021  0.50918038     0.08100
C2428       C  0.53649227  0.79891986  0.50463890    -0.05700
C2429       C  0.53590735  0.81453884  0.52372563    -0.06500
C2430       C  0.55567206  0.82286343  0.54208418    -0.16100
C2431       C  0.57964199  0.81944949  0.53974018    -0.01700
C2432       C  0.58107743  0.80477764  0.52001256    -0.09200
C2433       C  0.51138958  0.78781446  0.48766721     0.65100
H2434       H  0.51804484  0.81800918  0.52534850     0.10500
C2435       C  0.60263427  0.82986569  0.55838350     0.63500
H2436       H  0.59841566  0.80060985  0.51827640     0.07900
F2437       F  0.52659756  0.68955294  0.50595023    -0.19600
F2438       F  0.53874860  0.67917809  0.47181285    -0.15800
F2439       F  0.49615150  0.67682392  0.47596911    -0.19300
F2440       F  0.60926061  0.82952104  0.47000660    -0.22700
F2441       F  0.56761889  0.82532450  0.45865786    -0.24200
F2442       F  0.59469509  0.81870557  0.43301315    -0.18100
F2443       F  0.59039113  0.81549823  0.57900362    -0.20600
F2444       F  0.61497715  0.85920000  0.56172703    -0.21800
F2445       F  0.62445320  0.82509703  0.55229201    -0.19000
F2446       F  0.51298626  0.81103066  0.47642677    -0.19100
F2447       F  0.48554682  0.77322308  0.49984093    -0.22900
F2448       F  0.51080292  0.76921478  0.47103639    -0.24500
C2449       C  0.46675989  0.91102365  0.46514218    -0.11300
C2450       C  0.45129426  0.89618823  0.48520778     0.11300
C2451       C  0.42071455  0.88071458  0.48505109    -0.03100
C2452       C  0.40663149  0.87678535  0.46376248    -0.05900
C2453       C  0.42217148  0.88819814  0.44305187    -0.16600
C2454       C  0.45248733  0.90740461  0.44382748     0.02300
C2455       C  0.46696605  0.89261968  0.50467947     0.12200
C2456       C  0.40315807  0.86715606  0.50703758     0.62900
H2457       H  0.38329492  0.86327677  0.46285594     0.12300
C2458       C  0.46959250  0.92266577  0.42213136     0.55000
H2459       H  0.49016609  0.92356508  0.46589906     0.08100
C2460       C  0.47312730  0.87044819  0.50402676    -0.05700
C2461       C  0.48431044  0.86515203  0.52397893    -0.06500
C2462       C  0.48856414  0.88035766  0.54494451    -0.16100
C2463       C  0.48317565  0.90332385  0.54527302    -0.01700
C2464       C  0.47288147  0.90928439  0.52483490    -0.09200
C2465       C  0.46684606  0.85159875  0.48257972     0.65100
H2466       H  0.48870626  0.84796932  0.52342501     0.10500
C2467       C  0.48737798  0.92111562  0.56692497     0.63500
H2468       H  0.46798284  0.92614664  0.52469954     0.07900
F2469       F  0.46702666  0.90262819  0.40597458    -0.19600
F2470       F  0.49866159  0.94125200  0.42691504    -0.15800
F2471       F  0.45908956  0.93871426  0.41269537    -0.19300
F2472       F  0.41030114  0.88837306  0.52350545    -0.22700
F2473       F  0.40885234  0.84704366  0.51583843    -0.24200
F2474       F  0.37372893  0.85340459  0.50300768    -0.18100
F2475       F  0.48279630  0.94340617  0.56259568    -0.20600
F2476       F  0.51534257  0.93320837  0.57500511    -0.21800
F2477       F  0.46796141  0.90378383  0.58395929    -0.19000
F2478       F  0.47362886  0.83067422  0.48597178    -0.19100
F2479       F  0.48299544  0.86842555  0.46395039    -0.22900
F2480       F  0.43779524  0.83766330  0.47710168    -0.24500
C2481       C  0.13990874  0.65601982  0.72095921    -0.11300
C2482       C  0.16376226  0.67801668  0.73294005     0.11300
C2483       C  0.18805322  0.69924235  0.72033100    -0.03100
C2484       C  0.18712851  0.69823275  0.69591635    -0.05900
C2485       C  0.16305142  0.67655440  0.68356956    -0.16600
C2486       C  0.13892365  0.65472917  0.69644783     0.02300
C2487       C  0.16301838  0.67767625  0.75880292     0.12200
C2488       C  0.21493664  0.72283031  0.73260053     0.62900
H2489       H  0.20570745  0.71446103  0.68627007     0.12300
C2490       C  0.11215223  0.63008885  0.68485029     0.55000
H2491       H  0.12196984  0.63969214  0.73116961     0.08100
C2492       C  0.14849247  0.68844597  0.77172094    -0.05700
C2493       C  0.14877683  0.68729084  0.79620822    -0.06500
C2494       C  0.16328098  0.67597573  0.80809543    -0.16100
C2495       C  0.17910279  0.66656450  0.79488630    -0.01700
C2496       C  0.17748163  0.66645891  0.77050316    -0.09200
C2497       C  0.13232399  0.70055223  0.75961116     0.65100
H2498       H  0.13692554  0.69457765  0.80628668     0.10500
C2499       C  0.19932817  0.65783921  0.80479342     0.63500
H2500       H  0.18862366  0.65839972  0.76032621     0.07900
F2501       F  0.09124298  0.61237829  0.70089897    -0.19600
F2502       F  0.11951283  0.61318017  0.67228273    -0.15800
F2503       F  0.09993825  0.64093818  0.67026790    -0.19300
F2504       F  0.22723522  0.71071499  0.74558284    -0.22700
F2505       F  0.20773107  0.73832523  0.74716591    -0.24200
F2506       F  0.23562757  0.74197849  0.71702835    -0.18100
F2507       F  0.18848272  0.62909092  0.79984597    -0.20600
F2508       F  0.20366653  0.66204766  0.82842570    -0.21800
F2509       F  0.22614894  0.67410997  0.79423477    -0.19000
F2510       F  0.12139089  0.71176892  0.77529636    -0.19100
F2511       F  0.10944590  0.67893529  0.74715623    -0.22900
F2512       F  0.15062986  0.72240911  0.74453062    -0.24500
C2513       C  0.04936281  0.66841267  0.62166002    -0.11300
C2514       C  0.03019762  0.64505810  0.60766916     0.11300
C2515       C  0.04114629  0.63464688  0.59051947    -0.03100
C2516       C  0.07112888  0.64642353  0.58942665    -0.05900
C2517       C  0.09036795  0.66759839  0.60527919    -0.16600
C2518       C  0.07941220  0.67975059  0.62109317     0.02300
C2519       C  0.99887137  0.62931079  0.61330905     0.12200
C2520       C  0.02109051  0.61033335  0.57412985     0.62900
H2521       H  0.07960889  0.63788975  0.57684944     0.12300
C2522       C  0.09872209  0.70344104  0.63812212     0.55000
H2523       H  0.04024638  0.67631802  0.63422327     0.08100
C2524       C  0.98727637  0.60787769  0.63087991    -0.05700
C2525       C  0.95716052  0.58987721  0.63271774    -0.06500
C2526       C  0.93856778  0.59300367  0.61795171    -0.16100
C2527       C  0.94996585  0.61610422  0.60192217    -0.01700
C2528       C  0.98027196  0.63405151  0.59979191    -0.09200
C2529       C  0.00659293  0.60324187  0.64700285     0.65100
H2530       H  0.94777776  0.57225171  0.64511049     0.10500
C2531       C  0.93017361  0.62091810  0.58670841     0.63500
H2532       H  0.98968344  0.65107940  0.58689809     0.07900
F2533       F  0.11195634  0.69388337  0.65290380    -0.19600
F2534       F  0.08329247  0.71180179  0.65170649    -0.15800
F2535       F  0.11948982  0.72743869  0.62603591    -0.19300
F2536       F  0.00536637  0.61864539  0.56109225    -0.22700
F2537       F  0.00221306  0.58585411  0.58669518    -0.24200
F2538       F  0.03619500  0.60323305  0.55890304    -0.18100
F2539       F  0.94558940  0.64432382  0.57202361    -0.20600
F2540       F  0.91251872  0.62606459  0.60058891    -0.21800
F2541       F  0.91319620  0.59673165  0.57323061    -0.19000
F2542       F  0.99068208  0.58137294  0.66289462    -0.19100
F2543       F  0.02437036  0.62820080  0.65938545    -0.22900
F2544       F  0.02342346  0.59594564  0.63422369    -0.24500
C2545       C  0.11960270  0.53944930  0.48432006    -0.11300
C2546       C  0.11985574  0.56504119  0.48092719     0.11300
C2547       C  0.11935570  0.57432307  0.45800659    -0.03100
C2548       C  0.12153663  0.55899271  0.43925152    -0.05900
C2549       C  0.12407002  0.53497557  0.44289297    -0.16600
C2550       C  0.12119266  0.52388649  0.46559608     0.02300
C2551       C  0.12849525  0.58454825  0.50118591     0.12200
C2552       C  0.11833623  0.60098398  0.45238811     0.62900
H2553       H  0.12372840  0.56729307  0.42174425     0.12300
C2554       C  0.12282143  0.49758014  0.47104993     0.55000
H2555       H  0.12042726  0.53274014  0.50189659     0.08100
C2556       C  0.10903330  0.58131160  0.51898443    -0.05700
C2557       C  0.12003455  0.59900423  0.53883392    -0.06500
C2558       C  0.14980073  0.61910463  0.54136044    -0.16100
C2559       C  0.16932336  0.62174178  0.52356932    -0.01700
C2560       C  0.15807305  0.60471515  0.50356754    -0.09200
C2561       C  0.07699177  0.55909785  0.51694036     0.65100
H2562       H  0.10551894  0.59708121  0.55263370     0.10500
C2563       C  0.20201971  0.64109236  0.52598880     0.63500
H2564       H  0.17245267  0.60626276  0.48977674     0.07900
F2565       F  0.10204917  0.48075121  0.48747339    -0.19600
F2566       F  0.14981751  0.50641500  0.47998265    -0.15800
F2567       F  0.11795038  0.48055804  0.45167525    -0.19300
F2568       F  0.14357295  0.62093095  0.44108501    -0.22700
F2569       F  0.11510251  0.61391073  0.47188745    -0.24200
F2570       F  0.09518502  0.59333900  0.43782529    -0.18100
F2571       F  0.21653516  0.63589780  0.50870806    -0.20600
F2572       F  0.21069576  0.63609036  0.54711702    -0.21800
F2573       F  0.21027064  0.66976414  0.52448137    -0.19000
F2574       F  0.06142200  0.56081376  0.53530044    -0.19100
F2575       F  0.07259329  0.53168802  0.51677110    -0.22900
F2576       F  0.06643037  0.56341866  0.49651911    -0.24500
C2577       C  0.23934004  0.79038984  0.52668992    -0.11300
C2578       C  0.23350746  0.77512428  0.50574111     0.11300
C2579       C  0.21286813  0.74505496  0.50522136    -0.03100
C2580       C  0.20054925  0.73080532  0.52632199    -0.05900
C2581       C  0.20867707  0.74567122  0.54753941    -0.16600
C2582       C  0.22732751  0.77597191  0.54779731     0.02300
C2583       C  0.25432513  0.78928182  0.48642190     0.12200
C2584       C  0.20528532  0.72785169  0.48270756     0.62900
H2585       H  0.18629522  0.70753786  0.52664021     0.12300
C2586       C  0.23625935  0.79243490  0.57053422     0.55000
H2587       H  0.25548593  0.81327175  0.52668563     0.08100
C2588       C  0.25235558  0.80718439  0.46979162    -0.05700
C2589       C  0.27240157  0.81791548  0.45128757    -0.06500
C2590       C  0.29448470  0.81176720  0.44947864    -0.16100
C2591       C  0.29674142  0.79435695  0.46672341    -0.01700
C2592       C  0.27682873  0.78397373  0.48512209    -0.09200
C2593       C  0.22978209  0.81543837  0.47199665     0.65100
H2594       H  0.27107130  0.83134459  0.43811481     0.10500
C2595       C  0.31880720  0.78519546  0.46536688     0.63500
H2596       H  0.27801733  0.77066879  0.49850581     0.07900
F2597       F  0.25382248  0.82189736  0.56707034    -0.19600
F2598       F  0.25131579  0.78348848  0.58374456    -0.15800
F2599       F  0.21190539  0.78718555  0.58261816    -0.19300
F2600       F  0.22919470  0.72819834  0.47399049    -0.22700
F2601       F  0.19587769  0.73965725  0.46637961    -0.24200
F2602       F  0.18351925  0.69931957  0.48597881    -0.18100
F2603       F  0.34639503  0.80889098  0.46813887    -0.20600
F2604       F  0.31682277  0.77231012  0.44414700    -0.21800
F2605       F  0.31442578  0.76548378  0.48253075    -0.19000
F2606       F  0.23010357  0.83117641  0.45299924    -0.19100
F2607       F  0.23525818  0.83208288  0.49170618    -0.22900
F2608       F  0.20243425  0.79103673  0.47376891    -0.24500
C2609       C  0.31862766  0.78466674  0.64142788    -0.11300
C2610       C  0.33665718  0.77565185  0.63246214     0.11300
C2611       C  0.32443323  0.74866523  0.62123274    -0.03100
C2612       C  0.29454243  0.73265241  0.61753155    -0.05900
C2613       C  0.27623717  0.74227575  0.62499535    -0.16600
C2614       C  0.28836647  0.76826116  0.63807591     0.02300
C2615       C  0.36839773  0.79595841  0.63228627     0.12200
C2616       C  0.34299767  0.73703810  0.61276093     0.62900
H2617       H  0.28542758  0.71258818  0.60803052     0.12300
C2618       C  0.26985702  0.77872209  0.64859522     0.55000
H2619       H  0.32864313  0.80527950  0.65025502     0.08100
C2620       C  0.38196143  0.81456184  0.61309498    -0.05700
C2621       C  0.41196043  0.82792603  0.61053789    -0.06500
C2622       C  0.42859184  0.82347153  0.62657588    -0.16100
C2623       C  0.41553206  0.80728828  0.64701281    -0.01700
C2624       C  0.38528005  0.79361543  0.64954740    -0.09200
C2625       C  0.36460316  0.81910246  0.59479419     0.65100
H2626       H  0.42258908  0.84088541  0.59524759     0.10500
C2627       C  0.43321778  0.80329752  0.66525515     0.63500
H2628       H  0.37436606  0.77956904  0.66424378     0.07900
F2629       F  0.25884341  0.78766467  0.63121933    -0.19600
F2630       F  0.28558497  0.80173810  0.66355180    -0.15800
F2631       F  0.24736475  0.75669783  0.66116258    -0.19300
F2632       F  0.35696448  0.73378652  0.63144262    -0.22700
F2633       F  0.36340373  0.75579770  0.59690241    -0.24200
F2634       F  0.32666826  0.71042999  0.60203520    -0.18100
F2635       F  0.45400431  0.82990714  0.67403310    -0.20600
F2636       F  0.44661825  0.79008207  0.65545070    -0.21800
F2637       F  0.41622934  0.78642106  0.68361445    -0.19000
F2638       F  0.38222960  0.83857110  0.57788286    -0.19100
F2639       F  0.34915564  0.82977586  0.60521530    -0.22900
F2640       F  0.34555445  0.79329862  0.58391176    -0.24500
C2641       C  0.31647447  0.45567049  0.77742501    -0.11300
C2642       C  0.32927623  0.48194027  0.76525234     0.11300
C2643       C  0.34205811  0.50823293  0.77784390    -0.03100
C2644       C  0.34208541  0.50732973  0.80229758    -0.05900
C2645       C  0.32926465  0.48114291  0.81442376    -0.16600
C2646       C  0.31634284  0.45483673  0.80196221     0.02300
C2647       C  0.32918043  0.48148968  0.73930441     0.12200
C2648       C  0.35495149  0.53711784  0.76556070     0.62900
H2649       H  0.35162550  0.52715425  0.81224766     0.12300
C2650       C  0.30303659  0.42621294  0.81462646     0.55000
H2651       H  0.30666330  0.43582416  0.76750741     0.08100
C2652       C  0.34964110  0.47856909  0.72628080    -0.05700
C2653       C  0.34962798  0.48055742  0.70186583    -0.06500
C2654       C  0.32995725  0.48542303  0.68997533    -0.16100
C2655       C  0.30913804  0.48799539  0.70321250    -0.01700
C2656       C  0.30904089  0.48559490  0.72764522    -0.09200
C2657       C  0.37147830  0.47344742  0.73814101     0.65100
H2658       H  0.36516078  0.47822270  0.69182305     0.10500
C2659       C  0.28756766  0.49410542  0.69204926     0.63500
H2660       H  0.29345665  0.48745208  0.73806117     0.07900
F2661       F  0.29144989  0.40312402  0.79935275    -0.19600
F2662       F  0.28113685  0.42279913  0.82917320    -0.15800
F2663       F  0.32398813  0.42559816  0.82774172    -0.19300
F2664       F  0.33307391  0.53911982  0.75538128    -0.22700
F2665       F  0.37430507  0.53982104  0.74858300    -0.24200
F2666       F  0.36957557  0.56000479  0.78083356    -0.18100
F2667       F  0.27159959  0.49856915  0.70845645    -0.20600
F2668       F  0.26834205  0.47088645  0.67850634    -0.21800
F2669       F  0.30202379  0.51871975  0.67849251    -0.19000
F2670       F  0.39117888  0.47399334  0.72248506    -0.19100
F2671       F  0.35721915  0.44674474  0.74884909    -0.22900
F2672       F  0.38678085  0.49456382  0.75464153    -0.24500
C2673       C  0.38312033  0.35344250  0.59780397    -0.11300
C2674       C  0.38477659  0.37367364  0.61392080     0.11300
C2675       C  0.40333173  0.38118651  0.63331855    -0.03100
C2676       C  0.42035651  0.36891497  0.63545747    -0.05900
C2677       C  0.42090728  0.35067894  0.61832771    -0.16600
C2678       C  0.40134721  0.34217345  0.59937400     0.02300
C2679       C  0.37001227  0.38970699  0.60894357     0.12200
C2680       C  0.40644215  0.40341250  0.65107709     0.62900
H2681       H  0.43469257  0.37479010  0.65020594     0.12300
C2682       C  0.40027734  0.32220690  0.58052255     0.55000
H2683       H  0.36845655  0.34773087  0.58330547     0.08100
C2684       C  0.38283816  0.41390683  0.59394087    -0.05700
C2685       C  0.37274733  0.43296442  0.59455360    -0.06500
C2686       C  0.35064238  0.42895150  0.60986766    -0.16100
C2687       C  0.33599844  0.40318160  0.62332458    -0.01700
C2688       C  0.34581651  0.38376665  0.62230127    -0.09200
C2689       C  0.40803611  0.42029600  0.57814816     0.65100
H2690       H  0.38313718  0.45210286  0.58374893     0.10500
C2691       C  0.31142657  0.39689160  0.63977867     0.63500
H2692       H  0.33604042  0.36476721  0.63326211     0.07900
F2693       F  0.42729870  0.33363327  0.57044060    -0.19600
F2694       F  0.38092941  0.31805446  0.56310904    -0.15800
F2695       F  0.39153524  0.29566715  0.59021378    -0.19300
F2696       F  0.38047660  0.39343801  0.66252754    -0.22700
F2697       F  0.41451883  0.42915267  0.64007312    -0.24200
F2698       F  0.42721948  0.40907081  0.66761484    -0.18100
F2699       F  0.30116654  0.37122332  0.65170164    -0.20600
F2700       F  0.28864167  0.39470352  0.62731934    -0.21800
F2701       F  0.32087926  0.41878319  0.65602532    -0.19000
F2702       F  0.41824707  0.44565006  0.56578130    -0.19100
F2703       F  0.39924782  0.39809103  0.56233049    -0.22900
F2704       F  0.43067484  0.42295974  0.59114768    -0.24500
C2705       C  0.26504558  0.47638327  0.51014086    -0.11300
C2706       C  0.23542553  0.46244739  0.51509271     0.11300
C2707       C  0.22506755  0.44984901  0.53725599    -0.03100
C2708       C  0.24532749  0.45416855  0.55457609    -0.05900
C2709       C  0.27523893  0.47087894  0.55026539    -0.16600
C2710       C  0.28528319  0.48122013  0.52746028     0.02300
C2711       C  0.21664937  0.46392624  0.49709695     0.12200
C2712       C  0.19290858  0.43248297  0.54259033     0.62900
H2713       H  0.23803685  0.44608724  0.57200588     0.12300
C2714       C  0.31729209  0.49790492  0.52150471     0.55000
H2715       H  0.27234617  0.48518891  0.49286857     0.08100
C2716       C  0.21576228  0.48923850  0.49418886    -0.05700
C2717       C  0.20170144  0.49147220  0.47463926    -0.06500
C2718       C  0.18894291  0.46968904  0.45756775    -0.16100
C2719       C  0.18830238  0.44355449  0.46132630    -0.01700
C2720       C  0.20236891  0.44124976  0.48108928    -0.09200
C2721       C  0.23085561  0.51453113  0.51102095     0.65100
H2722       H  0.20226075  0.51141607  0.47189885     0.10500
C2723       C  0.17314367  0.41824858  0.44472320     0.63500
H2724       H  0.20344545  0.42213586  0.48367992     0.07900
F2725       F  0.32194212  0.50238744  0.49779196    -0.19600
F2726       F  0.32962850  0.48261803  0.52887448    -0.15800
F2727       F  0.33094638  0.52458096  0.53221444    -0.19300
F2728       F  0.17951041  0.40862008  0.52819861    -0.22700
F2729       F  0.18085193  0.44904695  0.53894506    -0.24200
F2730       F  0.18746150  0.42296570  0.56540767    -0.18100
F2731       F  0.18862266  0.42466387  0.42418453    -0.20600
F2732       F  0.14554710  0.41227652  0.44019029    -0.21800
F2733       F  0.17067908  0.39357570  0.45394596    -0.19000
F2734       F  0.22498273  0.53582586  0.50609388    -0.19100
F2735       F  0.26045006  0.52678149  0.50968583    -0.22900
F2736       F  0.22177596  0.50528935  0.53352590    -0.24500
C2737       C  0.44600241  0.57954762  0.52889150    -0.11300
C2738       C  0.44125532  0.55815651  0.51281464     0.11300
C2739       C  0.42414111  0.52869781  0.51912787    -0.03100
C2740       C  0.40966798  0.52156674  0.54070806    -0.05900
C2741       C  0.41171782  0.54302479  0.55554769    -0.16600
C2742       C  0.43041923  0.57250018  0.54982678     0.02300
C2743       C  0.44916532  0.56758138  0.48835093     0.12200
C2744       C  0.42062813  0.50511756  0.50285315     0.62900
H2745       H  0.39528231  0.49916417  0.54555201     0.12300
C2746       C  0.43142619  0.59626683  0.56441508     0.55000
H2747       H  0.45931949  0.60191710  0.52357291     0.08100
C2748       C  0.43081840  0.57272393  0.47454479    -0.05700
C2749       C  0.44071746  0.58549701  0.45271221    -0.06500
C2750       C  0.46902083  0.59547683  0.44492401    -0.16100
C2751       C  0.48709849  0.58946257  0.45837092    -0.01700
C2752       C  0.47655956  0.57512883  0.47991857    -0.09200
C2753       C  0.40170818  0.56681429  0.48345228     0.65100
H2754       H  0.42691403  0.58975135  0.44214604     0.10500
C2755       C  0.51770174  0.59941278  0.45074840     0.63500
H2756       H  0.49019050  0.57115941  0.49096779     0.07900
F2757       F  0.45114747  0.62344788  0.55579117    -0.19600
F2758       F  0.43922378  0.59475645  0.58696598    -0.15800
F2759       F  0.40446004  0.59310468  0.56441844    -0.19300
F2760       F  0.44736894  0.50860381  0.49877578    -0.22700
F2761       F  0.40900720  0.50651168  0.48192251    -0.24200
F2762       F  0.40258198  0.47790632  0.51219040    -0.18100
F2763       F  0.53169644  0.59199574  0.46673449    -0.20600
F2764       F  0.53354837  0.62909693  0.44829046    -0.21800
F2765       F  0.51708572  0.58670535  0.42975041    -0.19000
F2766       F  0.38667598  0.57164494  0.46653088    -0.19100
F2767       F  0.40587790  0.58481132  0.50196758    -0.22900
F2768       F  0.38461554  0.53847790  0.49059962    -0.24500
C2769       C  0.44622230  0.64648897  0.64852810    -0.11300
C2770       C  0.43718943  0.66372926  0.63805162     0.11300
C2771       C  0.40954394  0.65048662  0.62759904    -0.03100
C2772       C  0.39251582  0.62026298  0.62688319    -0.05900
C2773       C  0.40256986  0.60289759  0.63530202    -0.16600
C2774       C  0.42922560  0.61602198  0.64738818     0.02300
C2775       C  0.45836444  0.69511203  0.63496331     0.12200
C2776       C  0.39891490  0.66806581  0.61553575     0.62900
H2777       H  0.37187154  0.60986563  0.61803594     0.12300
C2778       C  0.44023450  0.59814298  0.65802559     0.55000
H2779       H  0.46740865  0.65714779  0.65647850     0.08100
C2780       C  0.46113368  0.71616406  0.65097707    -0.05700
C2781       C  0.47717941  0.74543803  0.64428571    -0.06500
C2782       C  0.49095517  0.75397836  0.62252025    -0.16100
C2783       C  0.48999587  0.73300424  0.60730905    -0.01700
C2784       C  0.47390586  0.70383171  0.61399792    -0.09200
C2785       C  0.44731041  0.70768273  0.67491270     0.65100
H2786       H  0.47845303  0.76188344  0.65574498     0.10500
C2787       C  0.50414241  0.74109848  0.58346690     0.63500
H2788       H  0.47171899  0.68726018  0.60219750     0.07900
F2789       F  0.46691924  0.61525736  0.66847126    -0.19600
F2790       F  0.44306479  0.58178610  0.64102753    -0.15800
F2791       F  0.42093022  0.58006016  0.67481709    -0.19300
F2792       F  0.41595346  0.68178000  0.59628850    -0.22700
F2793       F  0.40015153  0.68854979  0.63048819    -0.24200
F2794       F  0.37060071  0.65091053  0.60809925    -0.18100
F2795       F  0.50109704  0.71744088  0.57171430    -0.20600
F2796       F  0.53336581  0.76116104  0.58568970    -0.21800
F2797       F  0.49149256  0.75263892  0.57020325    -0.19000
F2798       F  0.45258790  0.73151332  0.68772616    -0.19100
F2799       F  0.45856679  0.69382705  0.68691105    -0.22900
F2800       F  0.41771876  0.68928281  0.67311227    -0.24500
C2801       C  0.22497711  0.59237535  0.64946577    -0.11300
C2802       C  0.22685903  0.57604704  0.63139985     0.11300
C2803       C  0.21523603  0.57559938  0.60921811    -0.03100
C2804       C  0.20335921  0.59268056  0.60573926    -0.05900
C2805       C  0.20346048  0.61064911  0.62320868    -0.16600
C2806       C  0.21440797  0.61070421  0.64552220     0.02300
C2807       C  0.24411073  0.56245350  0.63498080     0.12200
C2808       C  0.21595469  0.55793900  0.58894335     0.62900
H2809       H  0.19445558  0.59276136  0.58893507     0.12300
C2810       C  0.21663897  0.63117988  0.66452015     0.55000
H2811       H  0.23304860  0.59158883  0.66644390     0.08100
C2812       C  0.27467590  0.57926860  0.63599746    -0.05700
C2813       C  0.29002505  0.56533520  0.63316165    -0.06500
C2814       C  0.27611237  0.53564319  0.62809583    -0.16100
C2815       C  0.24533554  0.51857413  0.62881185    -0.01700
C2816       C  0.23002306  0.53236859  0.63343476    -0.09200
C2817       C  0.29123310  0.61189084  0.63922232     0.65100
H2818       H  0.31341765  0.57809836  0.63375768     0.10500
C2819       C  0.22835634  0.48657855  0.62307917     0.63500
H2820       H  0.20661024  0.52003588  0.63387943     0.07900
F2821       F  0.23203963  0.63074976  0.68348245    -0.19600
F2822       F  0.18927591  0.62337286  0.67202854    -0.15800
F2823       F  0.23075538  0.65915881  0.65611415    -0.19300
F2824       F  0.19789805  0.52884382  0.59351483    -0.22700
F2825       F  0.24382083  0.56412862  0.58533192    -0.24200
F2826       F  0.20667599  0.56375156  0.56844438    -0.18100
F2827       F  0.19878071  0.47481414  0.62447147    -0.20600
F2828       F  0.23532204  0.47175055  0.63851157    -0.21800
F2829       F  0.23465581  0.48251308  0.60060675    -0.19000
F2830       F  0.32083189  0.62405107  0.63747720    -0.19100
F2831       F  0.28556634  0.61849534  0.66102247    -0.22900
F2832       F  0.28322263  0.62451764  0.62245479    -0.24500
loop_ 
_geom_bond_atom_site_label_1 
_geom_bond_atom_site_label_2 
_geom_bond_distance 
_geom_bond_site_symmetry_2 
_ccdc_geom_bond_type 
O1          Cr19   1.965       .  S
O1            C9   1.259       .  A
O2          Cr19   1.987       .  S
O2            C3   1.257       .  A
C3            O4   1.262       .  A
C3         C2709   1.480       .  S
O4          Cr20   2.002       .  S
O5          Cr20   2.023       .  S
O5            C6   1.270       .  A
C6            O7   1.262       .  A
C6         C2686   1.497       .  S
O7          Cr21   1.971       .  S
O8          Cr21   2.027       .  S
O8            C9   1.270       .  A
C9         C2741   1.469       .  S
O10         Cr19   1.986       .  S
O10          C18   1.259       .  A
O11         Cr19   1.954       .  S
O11          C12   1.261       .  A
C12          O13   1.270       .  A
C12        C2814   1.492       .  S
O13         Cr20   2.023       .  S
O14         Cr20   1.978       .  S
O14          C15   1.257       .  A
C15          O16   1.266       .  A
C15        C2654   1.500       .  S
O16         Cr21   2.009       .  S
O17         Cr21   2.002       .  S
O17          C18   1.260       .  A
C18        C2773   1.487       .  S
Cr19         O22   1.763       .  S
Cr20         O22   1.776       .  S
Cr21         O22   1.777       .  S
O23         Cr41   1.954       .  S
O23          C31   1.255       .  A
O24         Cr41   1.993       .  S
O24          C25   1.261       .  A
C25          O26   1.259       .  A
C25        C2581   1.469       .  S
O26         Cr42   1.990       .  S
O27         Cr42   2.028       .  S
O27          C28   1.270       .  A
C28          O29   1.258       .  A
C28        C2517   1.495       .  S
O29         Cr43   1.957       .  S
O30         Cr43   2.033       .  S
O30          C31   1.273       .  A
C31        C2558   1.479       .  S
O32         Cr41   1.994       .  S
O32          C40   1.262       .  A
O33         Cr41   1.950       .  S
O33          C34   1.257       .  A
C34          O35   1.274       .  A
C34        C2613   1.496       .  S
O35         Cr42   2.045       .  S
O36         Cr42   1.972       .  S
O36          C37   1.262       .  A
C37          O38   1.266       .  A
C37        C2485   1.500       .  S
O38         Cr43   2.014       .  S
O39         Cr43   1.979       .  S
O39          C40   1.255       .  A
C40        C2805   1.471       .  S
Cr41         O44   1.753       .  S
Cr42         O44   1.767       .  S
Cr43         O44   1.763       .  S
O45         Cr63   1.960       .  S
O45          C53   1.260       .  A
O46         Cr63   1.982       .  S
O46          C47   1.261       .  A
C47          O48   1.262       .  A
C47        C2430   1.480       .  S
O48         Cr64   1.999       .  S
O49         Cr64   2.036       .  S
O49          C50   1.271       .  A
C50          O51   1.256       .  A
C50        C2389   1.483       .  S
O51         Cr65   1.960       .  S
O52         Cr65   2.031       .  S
O52          C53   1.270       .  A
C53        C2462   1.499       .  S
O54         Cr63   1.994       .  S
O54          C62   1.261       .  A
O55         Cr63   1.967       .  S
O55          C56   1.260       .  A
C56          O57   1.274       .  A
C56        C2782   1.478       .  S
O57         Cr64   2.038       .  S
O58         Cr64   1.971       .  S
O58          C59   1.259       .  A
C59          O60   1.268       .  A
C59        C2357   1.475       .  S
O60         Cr65   2.018       .  S
O61         Cr65   1.986       .  S
O61          C62   1.257       .  A
C62        C2622   1.473       .  S
Cr63         O66   1.755       .  S
Cr64         O66   1.774       .  S
Cr65         O66   1.767       .  S
O67         Cr85   1.998       .  S
O67          C75   1.264       .  A
O68         Cr85   1.962       .  S
O68          C69   1.256       .  A
C69          O70   1.270       .  A
C69        C2718   1.499       .  S
O70         Cr86   2.039       .  S
O71         Cr86   1.996       .  S
O71          C72   1.264       .  A
C72          O73   1.266       .  A
C72        C2270   1.484       .  S
O73         Cr87   1.998       .  S
O74         Cr87   1.980       .  S
O74          C75   1.259       .  A
C75        C2549   1.466       .  S
O76         Cr85   1.974       .  S
O76          C84   1.260       .  A
O77         Cr85   2.000       .  S
O77          C78   1.266       .  A
C78          O79   1.262       .  A
C78        C2334   1.485       .  S
O79         Cr86   1.990       .  S
O80         Cr86   2.031       .  S
O80          C81   1.271       .  A
C81          O82   1.260       .  A
C81        C2238   1.493       .  S
O82         Cr87   1.971       .  S
O83         Cr87   2.006       .  S
O83          C84   1.263       .  A
C84        C2293   1.486       .  S
Cr85         O88   1.758       .  S
Cr86         O88   1.775       .  S
Cr87         O88   1.767       .  S
O89        Cr107   2.000       .  S
O89          C97   1.265       .  A
O90        Cr107   1.967       .  S
O90          C91   1.255       .  A
C91          O92   1.266       .  A
C91        C2590   1.481       .  S
O92        Cr108   2.011       .  S
O93        Cr108   1.982       .  S
O93          C94   1.259       .  A
C94          O95   1.265       .  A
C94        C2165   1.477       .  S
O95        Cr109   1.993       .  S
O96        Cr109   1.986       .  S
O96          C97   1.259       .  A
C97        C2453   1.474       .  S
O98        Cr107   1.969       .  S
O98         C106   1.258       .  A
O99        Cr107   2.000       .  S
O99         C100   1.264       .  A
C100        O101   1.262       .  A
C100       C2302   1.472       .  S
O101       Cr108   1.989       .  S
O102       Cr108   2.011       .  S
O102        C103   1.266       .  A
C103        O104   1.264       .  A
C103       C2142   1.490       .  S
O104       Cr109   1.974       .  S
O105       Cr109   2.014       .  S
O105        C106   1.266       .  A
C106       C2206   1.478       .  S
Cr107       O110   1.758       .  S
Cr108       O110   1.772       .  S
Cr109       O110   1.770       .  S
O111       Cr129   1.981       .  S
O111        C119   1.261       .  A
O112       Cr129   1.976       .  S
O112        C113   1.261       .  A
C113        O114   1.269       .  A
C113       C2421   1.493       .  S
O114       Cr130   2.011       .  S
O115       Cr130   1.988       .  S
O115        C116   1.263       .  A
C116        O117   1.268       .  A
C116       C2101   1.480       .  S
O117       Cr131   2.009       .  S
O118       Cr131   2.002       .  S
O118        C119   1.263       .  A
C119       C2750   1.488       .  S
O120       Cr129   1.977       .  S
O120        C128   1.258       .  A
O121       Cr129   1.978       .  S
O121        C122   1.259       .  A
C122        O123   1.263       .  A
C122       C2197   1.493       .  S
O123       Cr130   2.007       .  S
O124       Cr130   2.002       .  S
O124        C125   1.264       .  A
C125        O126   1.261       .  A
C125       C2078   1.482       .  S
O126       Cr131   1.984       .  S
O127       Cr131   2.023       .  S
O127        C128   1.270       .  A
C128       C2325   1.501       .  S
Cr129       O132   1.757       .  S
Cr130       O132   1.772       .  S
Cr131       O132   1.769       .  S
O133       Cr151   1.995       .  S
O133        C141   1.264       .  A
O134       Cr151   1.983       .  S
O134        C135   1.261       .  A
C135        O136   1.265       .  A
C135       C2110   1.487       .  S
O136       Cr152   2.004       .  S
O137       Cr152   2.013       .  S
O137        C138   1.269       .  A
C138        O139   1.259       .  A
C138       C1941   1.498       .  S
O139       Cr153   1.972       .  S
O140       Cr153   2.004       .  S
O140        C141   1.263       .  A
C141       C1973   1.487       .  S
O142       Cr151   1.988       .  S
O142        C150   1.260       .  A
O143       Cr151   1.971       .  S
O143        C144   1.259       .  A
C144        O145   1.267       .  A
C144       C1909   1.472       .  S
O145       Cr152   2.015       .  S
O146       Cr152   2.007       .  S
O146        C147   1.266       .  A
C147        O148   1.261       .  A
C147       C2037   1.488       .  S
O148       Cr153   1.992       .  S
O149       Cr153   1.981       .  S
O149        C150   1.261       .  A
C150       C2014   1.473       .  S
Cr151       O154   1.770       .  S
Cr152       O154   1.778       .  S
Cr153       O154   1.766       .  S
O155       Cr173   2.013       .  S
O155        C163   1.267       .  A
O156       Cr173   1.988       .  S
O156        C157   1.264       .  A
C157        O158   1.268       .  A
C157       C2677   1.500       .  S
O158       Cr174   2.014       .  S
O159       Cr174   2.031       .  S
O159        C160   1.270       .  A
C160        O161   1.261       .  A
C160       C1813   1.504       .  S
O161       Cr175   1.971       .  S
O162       Cr175   1.997       .  S
O162        C163   1.263       .  A
C163       C1982   1.489       .  S
O164       Cr173   2.002       .  S
O164        C172   1.261       .  A
O165       Cr173   1.997       .  S
O165        C166   1.264       .  A
C166        O167   1.268       .  A
C166       C1781   1.496       .  S
O167       Cr174   2.019       .  S
O168       Cr174   2.010       .  S
O168        C169   1.265       .  A
C169        O170   1.261       .  A
C169       C1886   1.486       .  S
O170       Cr175   1.999       .  S
O171       Cr175   1.975       .  S
O171        C172   1.261       .  A
C172       C1845   1.490       .  S
Cr173       O176   1.770       .  S
Cr174       O176   1.776       .  S
Cr175       O176   1.765       .  S
O177       Cr195   2.027       .  S
O177        C185   1.271       .  A
O178       Cr195   1.959       .  S
O178        C179   1.257       .  A
C179        O180   1.269       .  A
C179       C2174   1.468       .  S
O180       Cr196   2.021       .  S
O181       Cr196   1.995       .  S
O181        C182   1.261       .  A
C182        O183   1.263       .  A
C182       C1822   1.482       .  S
O183       Cr197   2.002       .  S
O184       Cr197   1.964       .  S
O184        C185   1.259       .  A
C185       C1717   1.493       .  S
O186       Cr195   1.988       .  S
O186        C194   1.261       .  A
O187       Cr195   2.018       .  S
O187        C188   1.268       .  A
C188        O189   1.255       .  A
C188       C1694   1.504       .  S
O189       Cr196   1.974       .  S
O190       Cr196   2.019       .  S
O190        C191   1.268       .  A
C191        O192   1.256       .  A
C191       C2005   1.463       .  S
O192       Cr197   1.950       .  S
O193       Cr197   1.998       .  S
O193        C194   1.260       .  A
C194       C1749   1.490       .  S
Cr195       O198   1.768       .  S
Cr196       O198   1.777       .  S
Cr197       O198   1.760       .  S
O199       Cr217   2.022       .  S
O199        C207   1.267       .  A
O200       Cr217   1.960       .  S
O200        C201   1.259       .  A
C201        O202   1.269       .  A
C201       C2526   1.471       .  S
O202       Cr218   2.020       .  S
O203       Cr218   1.991       .  S
O203        C204   1.261       .  A
C204        O205   1.260       .  A
C204       C1950   1.472       .  S
O205       Cr219   1.989       .  S
O206       Cr219   1.969       .  S
O206        C207   1.260       .  A
C207       C1621   1.491       .  S
O208       Cr217   1.988       .  S
O208        C216   1.260       .  A
O209       Cr217   2.004       .  S
O209        C210   1.265       .  A
C210        O211   1.258       .  A
C210       C1589   1.488       .  S
O211       Cr218   1.980       .  S
O212       Cr218   2.020       .  S
O212        C213   1.268       .  A
C213        O214   1.257       .  A
C213       C1854   1.468       .  S
O214       Cr219   1.960       .  S
O215       Cr219   1.996       .  S
O215        C216   1.259       .  A
C216       C1653   1.489       .  S
Cr217       O220   1.770       .  S
Cr218       O220   1.779       .  S
Cr219       O220   1.762       .  S
O221       Cr239   2.009       .  S
O221        C229   1.268       .  A
O222       Cr239   1.972       .  S
O222        C223   1.255       .  A
C223        O224   1.263       .  A
C223       C2261   1.474       .  S
O224       Cr240   2.014       .  S
O225       Cr240   1.996       .  S
O225        C226   1.264       .  A
C226        O227   1.264       .  A
C226       C1557   1.479       .  S
O227       Cr241   2.000       .  S
O228       Cr241   1.968       .  S
O228        C229   1.259       .  A
C229       C1630   1.479       .  S
O230       Cr239   1.980       .  S
O230        C238   1.258       .  A
O231       Cr239   2.016       .  S
O231        C232   1.269       .  A
C232        O233   1.262       .  A
C232       C1525   1.482       .  S
O233       Cr240   1.973       .  S
O234       Cr240   2.019       .  S
O234        C235   1.266       .  A
C235        O236   1.260       .  A
C235       C1758   1.479       .  S
O236       Cr241   1.969       .  S
O237       Cr241   2.001       .  S
O237        C238   1.261       .  A
C238       C2046   1.483       .  S
Cr239       O242   1.772       .  S
Cr240       O242   1.779       .  S
Cr241       O242   1.764       .  S
O243       Cr261   2.025       .  S
O243        C251   1.272       .  A
O244       Cr261   1.981       .  S
O244        C245   1.260       .  A
C245        O246   1.265       .  A
C245       C2398   1.487       .  S
O246       Cr262   2.012       .  S
O247       Cr262   2.000       .  S
O247        C248   1.261       .  A
C248        O249   1.261       .  A
C248       C1566   1.480       .  S
O249       Cr263   1.999       .  S
O250       Cr263   1.958       .  S
O250        C251   1.259       .  A
C251       C1726   1.481       .  S
O252       Cr261   2.000       .  S
O252        C260   1.261       .  A
O253       Cr261   2.013       .  S
O253        C254   1.268       .  A
C254        O255   1.265       .  A
C254       C1493   1.499       .  S
O255       Cr262   1.983       .  S
O256       Cr262   2.033       .  S
O256        C257   1.271       .  A
C257        O258   1.257       .  A
C257       C1662   1.476       .  S
O258       Cr263   1.955       .  S
O259       Cr263   2.004       .  S
O259        C260   1.259       .  A
C260       C1877   1.501       .  S
Cr261       O264   1.771       .  S
Cr262       O264   1.780       .  S
Cr263       O264   1.768       .  S
O265       Cr283   2.002       .  S
O265        C273   1.264       .  A
O266       Cr283   1.968       .  S
O266        C267   1.257       .  A
C267        O268   1.271       .  A
C267       C1365   1.496       .  S
O268       Cr284   2.032       .  S
O269       Cr284   1.990       .  S
O269        C270   1.265       .  A
C270        O271   1.266       .  A
C270       C1333   1.484       .  S
O271       Cr285   2.000       .  S
O272       Cr285   1.983       .  S
O272        C273   1.259       .  A
C273       C1406   1.469       .  S
O274       Cr283   1.967       .  S
O274        C282   1.255       .  A
O275       Cr283   1.999       .  S
O275        C276   1.262       .  A
C276        O277   1.261       .  A
C276       C1470   1.471       .  S
O277       Cr284   1.990       .  S
O278       Cr284   2.016       .  S
O278        C279   1.268       .  A
C279        O280   1.258       .  A
C279       C1918   1.487       .  S
O280       Cr285   1.972       .  S
O281       Cr285   2.009       .  S
O281        C282   1.266       .  A
C282       C1438   1.476       .  S
Cr283       O286   1.763       .  S
Cr284       O286   1.772       .  S
Cr285       O286   1.769       .  S
O287       Cr305   1.952       .  S
O287        C295   1.255       .  A
O288       Cr305   2.012       .  S
O288        C289   1.266       .  A
C289        O290   1.265       .  A
C289       C1237   1.491       .  S
O290       Cr306   2.003       .  S
O291       Cr306   2.034       .  S
O291        C292   1.271       .  A
C292        O293   1.259       .  A
C292       C1214   1.486       .  S
O293       Cr307   1.960       .  S
O294       Cr307   2.033       .  S
O294        C295   1.268       .  A
C295       C1397   1.479       .  S
O296       Cr305   2.010       .  S
O296        C304   1.266       .  A
O297       Cr305   1.956       .  S
O297        C298   1.257       .  A
C298        O299   1.271       .  A
C298       C1301   1.487       .  S
O299       Cr306   2.033       .  S
O300       Cr306   1.988       .  S
O300        C301   1.264       .  A
C301        O302   1.266       .  A
C301       C1790   1.510       .  S
O302       Cr307   2.018       .  S
O303       Cr307   1.982       .  S
O303        C304   1.258       .  A
C304       C1269   1.478       .  S
Cr305       O308   1.759       .  S
Cr306       O308   1.775       .  S
Cr307       O308   1.772       .  S
O309       Cr327   1.995       .  S
O309        C317   1.264       .  A
O310       Cr327   1.966       .  S
O310        C311   1.258       .  A
C311        O312   1.269       .  A
C311       C1150   1.480       .  S
O312       Cr328   2.027       .  S
O313       Cr328   1.991       .  S
O313        C314   1.263       .  A
C314        O315   1.266       .  A
C314       C1077   1.487       .  S
O315       Cr329   1.998       .  S
O316       Cr329   1.992       .  S
O316        C317   1.263       .  A
C317       C1109   1.474       .  S
O318       Cr327   1.980       .  S
O318        C326   1.258       .  A
O319       Cr327   1.994       .  S
O319        C320   1.261       .  A
C320        O321   1.262       .  A
C320       C1173   1.476       .  S
O321       Cr328   1.992       .  S
O322       Cr328   2.016       .  S
O322        C323   1.267       .  A
C323        O324   1.260       .  A
C323       C1502   1.477       .  S
O324       Cr329   1.979       .  S
O325       Cr329   2.000       .  S
O325        C326   1.263       .  A
C326       C1310   1.472       .  S
Cr327       O330   1.762       .  S
Cr328       O330   1.774       .  S
Cr329       O330   1.768       .  S
O331       Cr349   1.996       .  S
O331        C339   1.265       .  A
O332       Cr349   1.972       .  S
O332        C333   1.260       .  A
C333        O334   1.270       .  A
C333       C1374   1.497       .  S
O334       Cr350   2.032       .  S
O335       Cr350   2.003       .  S
O335        C336   1.265       .  A
C336        O337   1.264       .  A
C336       C1013   1.488       .  S
O337       Cr351   1.990       .  S
O338       Cr351   1.987       .  S
O338        C339   1.263       .  A
C339       C1045   1.468       .  S
O340       Cr349   1.990       .  S
O340        C348   1.262       .  A
O341       Cr349   1.988       .  S
O341        C342   1.263       .  A
C342        O343   1.261       .  A
C342       C1278   1.487       .  S
O343       Cr350   1.994       .  S
O344       Cr350   2.023       .  S
O344        C345   1.270       .  A
C345        O346   1.259       .  A
C345       C1598   1.478       .  S
O346       Cr351   1.975       .  S
O347       Cr351   1.997       .  S
O347        C348   1.259       .  A
C348       C1182   1.493       .  S
Cr349       O352   1.761       .  S
Cr350       O352   1.776       .  S
Cr351       O352   1.767       .  S
O353       Cr371   1.970       .  S
O353        C361   1.264       .  A
O354       Cr371   1.982       .  S
O354        C355   1.256       .  A
C355        O356   1.266       .  A
C355       C1246   1.496       .  S
O356       Cr372   2.023       .  S
O357       Cr372   2.006       .  S
O357        C358   1.263       .  A
C358        O359   1.256       .  A
C358        C958   1.464       .  S
O359       Cr373   1.958       .  S
O360       Cr373   2.022       .  S
O360        C361   1.271       .  A
C361       C1118   1.491       .  S
O362       Cr371   1.984       .  S
O362        C370   1.253       .  A
O363       Cr371   1.961       .  S
O363        C364   1.261       .  A
C364        O365   1.271       .  A
C364       C1429   1.467       .  S
O365       Cr372   2.017       .  S
O366       Cr372   1.990       .  S
O366        C367   1.265       .  A
C367        O368   1.266       .  A
C367       C1685   1.485       .  S
O368       Cr373   2.005       .  S
O369       Cr373   1.991       .  S
O369        C370   1.257       .  A
C370        C990   1.492       .  S
Cr371       O374   1.762       .  S
Cr372       O374   1.780       .  S
Cr373       O374   1.772       .  S
O375       Cr393   1.953       .  S
O375        C383   1.256       .  A
O376       Cr393   1.997       .  S
O376        C377   1.263       .  A
C377        O378   1.259       .  A
C377       C1141   1.469       .  S
O378       Cr394   1.989       .  S
O379       Cr394   2.024       .  S
O379        C380   1.267       .  A
C380        O381   1.257       .  A
C380        C917   1.492       .  S
O381       Cr395   1.957       .  S
O382       Cr395   2.030       .  S
O382        C383   1.273       .  A
C383       C1054   1.480       .  S
O384       Cr393   2.000       .  S
O384        C392   1.264       .  A
O385       Cr393   1.947       .  S
O385        C386   1.256       .  A
C386        O387   1.272       .  A
C386        C981   1.474       .  S
O387       Cr394   2.030       .  S
O388       Cr394   1.960       .  S
O388        C389   1.256       .  A
C389        O390   1.270       .  A
C389       C1534   1.476       .  S
O390       Cr395   2.025       .  S
O391       Cr395   1.983       .  S
O391        C392   1.256       .  A
C392       C1461   1.497       .  S
Cr393       O396   1.757       .  S
Cr394       O396   1.772       .  S
Cr395       O396   1.763       .  S
O397       Cr415   2.019       .  S
O397        C405   1.266       .  A
O398       Cr415   1.955       .  S
O398        C399   1.255       .  A
C399        O400   1.268       .  A
C399       C1205   1.480       .  S
O400       Cr416   2.030       .  S
O401       Cr416   2.003       .  S
O401        C402   1.265       .  A
C402        O403   1.262       .  A
C402        C789   1.482       .  S
O403       Cr417   1.996       .  S
O404       Cr417   1.963       .  S
O404        C405   1.257       .  A
C405        C821   1.467       .  S
O406       Cr415   1.977       .  S
O406        C414   1.256       .  A
O407       Cr415   2.012       .  S
O407        C408   1.266       .  A
C408        O409   1.262       .  A
C408       C2645   1.479       .  S
O409       Cr416   1.984       .  S
O410       Cr416   2.030       .  S
O410        C411   1.271       .  A
C411        O412   1.260       .  A
C411        C894   1.477       .  S
O412       Cr417   1.970       .  S
O413       Cr417   1.988       .  S
O413        C414   1.261       .  A
C414        C853   1.478       .  S
Cr415       O418   1.774       .  S
Cr416       O418   1.779       .  S
Cr417       O418   1.762       .  S
O419       Cr437   2.035       .  S
O419        C427   1.270       .  A
O420       Cr437   1.971       .  S
O420        C421   1.261       .  A
C421        O422   1.265       .  A
C421        C926   1.467       .  S
O422       Cr438   2.005       .  S
O423       Cr438   1.997       .  S
O423        C424   1.263       .  A
C424        O425   1.261       .  A
C424        C798   1.480       .  S
O425       Cr439   1.993       .  S
O426       Cr439   1.973       .  S
O426        C427   1.259       .  A
C427        C693   1.485       .  S
O428       Cr437   1.994       .  S
O428        C436   1.262       .  A
O429       Cr437   2.017       .  S
O429        C430   1.265       .  A
C430        O431   1.263       .  A
C430       C2229   1.511       .  S
O431       Cr438   1.988       .  S
O432       Cr438   2.009       .  S
O432        C433   1.264       .  A
C433        O434   1.255       .  A
C433        C757   1.461       .  S
O434       Cr439   1.957       .  S
O435       Cr439   1.993       .  S
O435        C436   1.259       .  A
C436        C734   1.489       .  S
Cr437       O440   1.772       .  S
Cr438       O440   1.782       .  S
Cr439       O440   1.764       .  S
O441       Cr459   2.001       .  S
O441        C449   1.265       .  A
O442       Cr459   2.004       .  S
O442        C443   1.264       .  A
C443        O444   1.259       .  A
C443       C1022   1.481       .  S
O444       Cr460   1.988       .  S
O445       Cr460   2.021       .  S
O445        C446   1.268       .  A
C446        O447   1.260       .  A
C446        C638   1.494       .  S
O447       Cr461   1.970       .  S
O448       Cr461   2.002       .  S
O448        C449   1.265       .  A
C449        C702   1.480       .  S
O450       Cr459   2.020       .  S
O450        C458   1.266       .  A
O451       Cr459   1.978       .  S
O451        C452   1.263       .  A
C452        O453   1.272       .  A
C452       C2494   1.490       .  S
O453       Cr460   2.020       .  S
O454       Cr460   1.983       .  S
O454        C455   1.258       .  A
C455        O456   1.264       .  A
C455        C670   1.491       .  S
O456       Cr461   1.997       .  S
O457       Cr461   1.980       .  S
O457        C458   1.262       .  A
C458        C885   1.499       .  S
Cr459       O462   1.775       .  S
Cr460       O462   1.777       .  S
Cr461       O462   1.764       .  S
O463       Cr481   2.009       .  S
O463        C471   1.266       .  A
O464       Cr481   1.969       .  S
O464        C465   1.253       .  A
C465        O466   1.263       .  A
C465       C1086   1.475       .  S
O466       Cr482   2.016       .  S
O467       Cr482   2.006       .  S
O467        C468   1.268       .  A
C468        O469   1.266       .  A
C468        C565   1.490       .  S
O469       Cr483   2.010       .  S
O470       Cr483   1.954       .  S
O470        C471   1.257       .  A
C471        C597   1.467       .  S
O472       Cr481   1.979       .  S
O472        C480   1.255       .  A
O473       Cr481   2.024       .  S
O473        C474   1.271       .  A
C474        O475   1.264       .  A
C474       C2366   1.505       .  S
O475       Cr482   1.978       .  S
O476       Cr482   2.004       .  S
O476        C477   1.264       .  A
C477        O478   1.256       .  A
C477        C862   1.466       .  S
O478       Cr483   1.969       .  S
O479       Cr483   1.991       .  S
O479        C480   1.259       .  A
C480        C661   1.479       .  S
Cr481       O484   1.774       .  S
Cr482       O484   1.780       .  S
Cr483       O484   1.766       .  S
O485       Cr503   1.972       .  S
O485        C493   1.258       .  A
O486       Cr503   2.004       .  S
O486        C487   1.265       .  A
C487        O488   1.262       .  A
C487        C949   1.478       .  S
O488       Cr504   1.983       .  S
O489       Cr504   2.021       .  S
O489        C490   1.267       .  A
C490        O491   1.260       .  A
C490        C629   1.492       .  S
O491       Cr505   1.969       .  S
O492       Cr505   2.002       .  S
O492        C493   1.264       .  A
C493        C606   1.462       .  S
O494       Cr503   2.012       .  S
O494        C502   1.264       .  A
O495       Cr503   1.961       .  S
O495        C496   1.258       .  A
C496        O497   1.266       .  A
C496       C2133   1.463       .  S
O497       Cr504   2.011       .  S
O498       Cr504   1.984       .  S
O498        C499   1.259       .  A
C499        O500   1.264       .  A
C499        C725   1.471       .  S
O500       Cr505   2.002       .  S
O501       Cr505   1.975       .  S
O501        C502   1.260       .  A
C502        C533   1.489       .  S
Cr503       O506   1.768       .  S
Cr504       O506   1.773       .  S
Cr505       O506   1.761       .  S
O507       Cr525   1.984       .  S
O507        C515   1.260       .  A
O508       Cr525   1.996       .  S
O508        C509   1.266       .  A
C509        O510   1.264       .  A
C509       C1342   1.484       .  S
O510       Cr526   1.991       .  S
O511       Cr526   2.037       .  S
O511        C512   1.274       .  A
C512        O513   1.257       .  A
C512        C574   1.499       .  S
O513       Cr527   1.967       .  S
O514       Cr527   1.993       .  S
O514        C515   1.261       .  A
C515        C830   1.470       .  S
O516       Cr525   2.008       .  S
O516        C524   1.264       .  A
O517       Cr525   1.966       .  S
O517        C518   1.260       .  A
C518        O519   1.269       .  A
C518       C2069   1.488       .  S
O519       Cr526   2.024       .  S
O520       Cr526   1.988       .  S
O520        C521   1.259       .  A
C521        O522   1.259       .  A
C521        C542   1.470       .  S
O522       Cr527   1.985       .  S
O523       Cr527   1.971       .  S
O523        C524   1.259       .  A
C524        C766   1.485       .  S
Cr525       O528   1.766       .  S
Cr526       O528   1.775       .  S
Cr527       O528   1.763       .  S
C529        C530   1.399       .  A
C529        C534   1.408       .  A
C529        H539   1.083       .  S
C530        C535   1.482       .  S
C530        C531   1.415       .  A
C531        C532   1.404       .  A
C531        C536   1.521       .  S
C532        C533   1.407       .  A
C532        H537   1.082       .  S
C533        C534   1.424       .  A
C534        C538   1.518       .  S
C535        C540   1.415       .  A
C535        C544   1.400       .  A
C536        F552   1.382       .  S
C536        F553   1.383       .  S
C536        F554   1.385       .  S
C538        F549   1.382       .  S
C538        F550   1.385       .  S
C538        F551   1.383       .  S
C540        C541   1.404       .  A
C540        C545   1.520       .  S
C541        C542   1.402       .  A
C541        H546   1.084       .  S
C542        C543   1.423       .  A
C543        C544   1.405       .  A
C543        C547   1.520       .  S
C544        H548   1.085       .  S
C545        F558   1.385       .  S
C545        F559   1.382       .  S
C545        F560   1.383       .  S
C547        F555   1.384       .  S
C547        F556   1.378       .  S
C547        F557   1.383       .  S
C561        C562   1.400       .  A
C561        C566   1.405       .  A
C561        H571   1.083   1_556  S
C562        C567   1.495   1_556  S
C562        C563   1.419       .  A
C563        C564   1.416       .  A
C563        C568   1.517       .  S
C564        C565   1.405       .  A
C564        H569   1.082       .  S
C565        C566   1.420       .  A
C566        C570   1.513       .  S
C567        C572   1.419       .  A
C567        C576   1.404       .  A
C568        F584   1.381       .  S
C568        F585   1.383       .  S
C568        F586   1.384       .  S
C570        F581   1.385       .  S
C570        F582   1.379       .  S
C570        F583   1.383       .  S
C572        C573   1.409       .  A
C572        C577   1.518       .  S
C573        C574   1.408       .  A
C573        H578   1.084       .  S
C574        C575   1.426       .  A
C575        C576   1.410       .  A
C575        C579   1.522       .  S
C576        H580   1.083   1_554  S
C577        F590   1.384       .  S
C577        F591   1.383       .  S
C577        F592   1.382       .  S
C579        F587   1.383       .  S
C579        F588   1.384       .  S
C579        F589   1.385   1_554  S
C593        C594   1.401       .  A
C593        C598   1.400       .  A
C593        H603   1.083       .  S
C594        C599   1.477   1_556  S
C594        C595   1.415       .  A
C595        C596   1.406       .  A
C595        C600   1.518       .  S
C596        C597   1.401       .  A
C596        H601   1.082       .  S
C597        C598   1.416       .  A
C598        C602   1.521       .  S
C599        C604   1.416       .  A
C599        C608   1.403       .  A
C600        F616   1.382   1_556  S
C600        F617   1.382       .  S
C600        F618   1.385       .  S
C602        F613   1.385       .  S
C602        F614   1.381       .  S
C602        F615   1.383       .  S
C604        C605   1.403       .  A
C604        C609   1.519   1_554  S
C605        C606   1.399       .  A
C605        H610   1.084       .  S
C606        C607   1.412       .  A
C607        C608   1.403       .  A
C607        C611   1.518       .  S
C608        H612   1.084       .  S
C609        F622   1.385       .  S
C609        F623   1.382       .  S
C609        F624   1.381       .  S
C611        F619   1.382       .  S
C611        F620   1.383       .  S
C611        F621   1.385       .  S
C625        C626   1.402       .  A
C625        C630   1.412       .  A
C625        H635   1.083       .  S
C626        C631   1.484   1_554  S
C626        C627   1.415       .  A
C627        C628   1.403       .  A
C627        C632   1.524   1_554  S
C628        C629   1.407       .  A
C628        H633   1.083       .  S
C629        C630   1.423       .  A
C630        C634   1.518       .  S
C631        C636   1.412       .  A
C631        C640   1.399       .  A
C632        F648   1.382       .  S
C632        F649   1.381       .  S
C632        F650   1.385   1_556  S
C634        F645   1.382       .  S
C634        F646   1.385       .  S
C634        F647   1.384       .  S
C636        C637   1.408       .  A
C636        C641   1.520   1_556  S
C637        C638   1.410       .  A
C637        H642   1.083       .  S
C638        C639   1.426       .  A
C639        C640   1.408       .  A
C639        C643   1.519       .  S
C640        H644   1.083       .  S
C641        F654   1.384       .  S
C641        F655   1.383       .  S
C641        F656   1.382       .  S
C643        F651   1.385       .  S
C643        F652   1.383       .  S
C643        F653   1.381       .  S
C657        C658   1.399       .  A
C657        C662   1.407       .  A
C657        H667   1.083       .  S
C658        C663   1.478       .  S
C658        C659   1.413       .  A
C659        C660   1.403       .  A
C659        C664   1.520       .  S
C660        C661   1.404       .  A
C660        H665   1.083       .  S
C661        C662   1.422       .  A
C662        C666   1.518       .  S
C663        C668   1.413       .  A
C663        C672   1.400       .  A
C664        F680   1.383       .  S
C664        F681   1.382       .  S
C664        F682   1.384       .  S
C666        F677   1.381       .  S
C666        F678   1.385       .  S
C666        F679   1.379       .  S
C668        C669   1.401       .  A
C668        C673   1.523       .  S
C669        C670   1.408       .  A
C669        H674   1.083       .  S
C670        C671   1.424       .  A
C671        C672   1.410       .  A
C671        C675   1.517       .  S
C672        H676   1.083       .  S
C673        F686   1.385       .  S
C673        F687   1.383       .  S
C673        F688   1.382       .  S
C675        F683   1.385       .  S
C675        F684   1.383       .  S
C675        F685   1.379       .  S
C689        C690   1.401       .  A
C689        C694   1.404       .  A
C689        H699   1.084       .  S
C690        C695   1.492   1_554  S
C690        C691   1.418       .  A
C691        C692   1.416       .  A
C691        C696   1.517       .  S
C692        C693   1.405       .  A
C692        H697   1.082       .  S
C693        C694   1.418       .  A
C694        C698   1.519       .  S
C695        C700   1.420       .  A
C695        C704   1.403       .  A
C696        F712   1.382   1_554  S
C696        F713   1.381       .  S
C696        F714   1.385       .  S
C698        F709   1.385       .  S
C698        F710   1.382       .  S
C698        F711   1.382       .  S
C700        C701   1.412       .  A
C700        C705   1.519   1_556  S
C701        C702   1.403       .  A
C701        H706   1.084       .  S
C702        C703   1.414       .  A
C703        C704   1.407       .  A
C703        C707   1.515       .  S
C704        H708   1.083       .  S
C705        F718   1.385   1_554  S
C705        F719   1.381       .  S
C705        F720   1.382       .  S
C707        F715   1.382       .  S
C707        F716   1.383       .  S
C707        F717   1.384       .  S
C721        C722   1.403       .  A
C721        C726   1.403       .  A
C721        H731   1.083       .  S
C722        C727   1.483       .  S
C722        C723   1.419       .  A
C723        C724   1.409       .  A
C723        C728   1.519       .  S
C724        C725   1.401       .  A
C724        H729   1.083       .  S
C725        C726   1.413       .  A
C726        C730   1.517       .  S
C727        C732   1.415       .  A
C727        C736   1.397       .  A
C728        F744   1.382       .  S
C728        F745   1.382       .  S
C728        F746   1.385       .  S
C730        F741   1.385       .  S
C730        F742   1.382       .  S
C730        F743   1.383       .  S
C732        C733   1.412       .  A
C732        C737   1.517       .  S
C733        C734   1.409       .  A
C733        H738   1.083       .  S
C734        C735   1.426       .  A
C735        C736   1.399       .  A
C735        C739   1.522       .  S
C736        H740   1.084       .  S
C737        F750   1.385       .  S
C737        F751   1.382       .  S
C737        F752   1.382       .  S
C739        F747   1.382       .  S
C739        F748   1.377       .  S
C739        F749   1.385       .  S
C753        C754   1.398       .  A
C753        C758   1.401       .  A
C753        H763   1.085       .  S
C754        C759   1.474       .  S
C754        C755   1.416       .  A
C755        C756   1.403       .  A
C755        C760   1.520       .  S
C756        C757   1.400       .  A
C756        H761   1.084       .  S
C757        C758   1.418       .  A
C758        C762   1.518       .  S
C759        C764   1.412       .  A
C759        C768   1.398       .  A
C760        F776   1.382       .  S
C760        F777   1.382       .  S
C760        F778   1.385       .  S
C762        F773   1.383       .  S
C762        F774   1.383       .  S
C762        F775   1.379       .  S
C764        C765   1.402       .  A
C764        C769   1.522       .  S
C765        C766   1.408       .  A
C765        H770   1.082       .  S
C766        C767   1.422       .  A
C767        C768   1.405       .  A
C767        C771   1.518       .  S
C768        H772   1.084       .  S
C769        F782   1.384       .  S
C769        F783   1.383       .  S
C769        F784   1.382       .  S
C771        F779   1.385       .  S
C771        F780   1.384       .  S
C771        F781   1.382       .  S
C785        C786   1.404       .  A
C785        C790   1.406       .  A
C785        H795   1.083   1_556  S
C786        C791   1.495   1_556  S
C786        C787   1.423       .  A
C787        C788   1.410       .  A
C787        C792   1.516       .  S
C788        C789   1.402       .  A
C788        H793   1.085       .  S
C789        C790   1.417       .  A
C790        C794   1.516       .  S
C791        C796   1.421       .  A
C791        C800   1.404       .  A
C792        F808   1.383       .  S
C792        F809   1.382       .  S
C792        F810   1.384       .  S
C794        F805   1.381       .  S
C794        F806   1.385   1_556  S
C794        F807   1.384       .  S
C796        C797   1.412       .  A
C796        C801   1.519       .  S
C797        C798   1.403       .  A
C797        H802   1.083       .  S
C798        C799   1.416       .  A
C799        C800   1.406       .  A
C799        C803   1.517       .  S
C800        H804   1.083   1_554  S
C801        F814   1.385       .  S
C801        F815   1.381       .  S
C801        F816   1.383       .  S
C803        F811   1.382       .  S
C803        F812   1.384       .  S
C803        F813   1.385   1_554  S
C817        C818   1.401       .  A
C817        C822   1.400       .  A
C817        H827   1.084       .  S
C818        C823   1.479   1_556  S
C818        C819   1.416       .  A
C819        C820   1.409       .  A
C819        C824   1.518       .  S
C820        C821   1.402       .  A
C820        H825   1.084       .  S
C821        C822   1.413       .  A
C822        C826   1.518       .  S
C823        C828   1.416       .  A
C823        C832   1.401       .  A
C824        F840   1.382   1_556  S
C824        F841   1.382   1_556  S
C824        F842   1.385       .  S
C826        F837   1.383       .  S
C826        F838   1.385       .  S
C826        F839   1.382       .  S
C828        C829   1.406       .  A
C828        C833   1.518   1_554  S
C829        C830   1.401       .  A
C829        H834   1.083       .  S
C830        C831   1.418       .  A
C831        C832   1.403       .  A
C831        C835   1.522       .  S
C832        H836   1.084       .  S
C833        F846   1.384   1_556  S
C833        F847   1.382       .  S
C833        F848   1.382       .  S
C835        F843   1.381       .  S
C835        F844   1.382       .  S
C835        F845   1.385       .  S
C849        C850   1.401       .  A
C849        C854   1.408       .  A
C849        H859   1.083       .  S
C850        C855   1.476       .  S
C850        C851   1.417       .  A
C851        C852   1.397       .  A
C851        C856   1.524       .  S
C852        C853   1.403       .  A
C852        H857   1.083       .  S
C853        C854   1.421       .  A
C854        C858   1.518       .  S
C855        C860   1.416       .  A
C855        C864   1.401       .  A
C856        F872   1.381       .  S
C856        F873   1.383       .  S
C856        F874   1.385       .  S
C858        F869   1.384       .  S
C858        F870   1.385       .  S
C858        F871   1.382       .  S
C860        C861   1.401       .  A
C860        C865   1.519       .  S
C861        C862   1.401       .  A
C861        H866   1.083       .  S
C862        C863   1.415       .  A
C863        C864   1.402       .  A
C863        C867   1.517       .  S
C864        H868   1.083       .  S
C865        F878   1.385       .  S
C865        F879   1.382       .  S
C865        F880   1.383       .  S
C867        F875   1.384       .  S
C867        F876   1.382       .  S
C867        F877   1.385       .  S
C881        C882   1.402       .  A
C881        C886   1.414       .  A
C881        H891   1.083       .  S
C882        C887   1.490       .  S
C882        C883   1.415       .  A
C883        C884   1.405       .  A
C883        C888   1.521       .  S
C884        C885   1.408       .  A
C884        H889   1.082       .  S
C885        C886   1.427       .  A
C886        C890   1.519       .  S
C887        C892   1.418       .  A
C887        C896   1.402       .  A
C888        F904   1.382       .  S
C888        F905   1.383       .  S
C888        F906   1.384       .  S
C890        F901   1.381       .  S
C890        F902   1.385       .  S
C890        F903   1.382       .  S
C892        C893   1.409       .  A
C892        C897   1.519       .  S
C893        C894   1.403       .  A
C893        H898   1.084       .  S
C894        C895   1.418       .  A
C895        C896   1.406       .  A
C895        C899   1.518       .  S
C896        H900   1.085       .  S
C897        F910   1.385       .  S
C897        F911   1.382       .  S
C897        F912   1.383       .  S
C899        F907   1.383       .  S
C899        F908   1.384       .  S
C899        F909   1.382       .  S
C913        C914   1.402       .  A
C913        C918   1.412       .  A
C913        H923   1.083       .  S
C914        C919   1.480   1_655  S
C914        C915   1.413       .  A
C915        C916   1.398       .  A
C915        C920   1.525       .  S
C916        C917   1.409       .  A
C916        H921   1.082       .  S
C917        C918   1.423       .  A
C918        C922   1.517       .  S
C919        C924   1.416       .  A
C919        C928   1.402       .  A
C920        F936   1.382   1_655  S
C920        F937   1.383   1_655  S
C920        F938   1.384       .  S
C922        F933   1.382       .  S
C922        F934   1.385       .  S
C922        F935   1.383       .  S
C924        C925   1.404       .  A
C924        C929   1.519       .  S
C925        C926   1.401       .  A
C925        H930   1.084       .  S
C926        C927   1.413       .  A
C927        C928   1.405       .  A
C927        C931   1.517       .  S
C928        H932   1.083       .  S
C929        F942   1.385       .  S
C929        F943   1.382       .  S
C929        F944   1.383   1_455  S
C931        F939   1.384       .  S
C931        F940   1.383       .  S
C931        F941   1.381       .  S
C945        C946   1.399       .  A
C945        C950   1.401       .  A
C945        H955   1.084   1_565  S
C946        C951   1.477   1_565  S
C946        C947   1.411       .  A
C947        C948   1.410       .  A
C947        C952   1.518       .  S
C948        C949   1.407       .  A
C948        H953   1.083       .  S
C949        C950   1.419       .  A
C950        C954   1.519       .  S
C951        C956   1.418       .  A
C951        C960   1.404       .  A
C952        F968   1.383       .  S
C952        F969   1.382       .  S
C952        F970   1.384       .  S
C954        F965   1.382       .  S
C954        F966   1.385       .  S
C954        F967   1.382       .  S
C956        C957   1.402       .  A
C956        C961   1.524       .  S
C957        C958   1.399       .  A
C957        H962   1.084       .  S
C958        C959   1.410       .  A
C959        C960   1.408       .  A
C959        C963   1.515       .  S
C960        H964   1.083       .  S
C961        F974   1.384       .  S
C961        F975   1.382       .  S
C961        F976   1.381   1_545  S
C963        F971   1.384       .  S
C963        F972   1.383       .  S
C963        F973   1.384       .  S
C977        C978   1.400       .  A
C977        C982   1.399       .  A
C977        H987   1.085       .  S
C978        C983   1.477       .  S
C978        C979   1.419       .  A
C979        C980   1.405       .  A
C979        C984   1.518       .  S
C980        C981   1.402       .  A
C980        H985   1.085       .  S
C981        C982   1.420       .  A
C982        C986   1.518       .  S
C983        C988   1.410       .  A
C983        C992   1.396       .  A
C984       F1000   1.384       .  S
C984       F1001   1.382       .  S
C984       F1002   1.383       .  S
C986        F997   1.384       .  S
C986        F998   1.383       .  S
C986        F999   1.380       .  S
C988        C989   1.409       .  A
C988        C993   1.517       .  S
C989        C990   1.410       .  A
C989        H994   1.081       .  S
C990        C991   1.429       .  A
C991        C992   1.401       .  A
C991        C995   1.525       .  S
C992        H996   1.084       .  S
C993       F1006   1.384       .  S
C993       F1007   1.382       .  S
C993       F1008   1.383       .  S
C995       F1003   1.385       .  S
C995       F1004   1.383       .  S
C995       F1005   1.384       .  S
C1009      C1010   1.404       .  A
C1009      C1014   1.415       .  A
C1009      H1019   1.083       .  S
C1010      C1015   1.485   1_655  S
C1010      C1011   1.415       .  A
C1011      C1012   1.401       .  A
C1011      C1016   1.523       .  S
C1012      C1013   1.406       .  A
C1012      H1017   1.083       .  S
C1013      C1014   1.419       .  A
C1014      C1018   1.515       .  S
C1015      C1020   1.415       .  A
C1015      C1024   1.402       .  A
C1016      F1032   1.382   1_655  S
C1016      F1033   1.382   1_655  S
C1016      F1034   1.385       .  S
C1018      F1029   1.384       .  S
C1018      F1030   1.382       .  S
C1018      F1031   1.383       .  S
C1020      C1021   1.406       .  A
C1020      C1025   1.519       .  S
C1021      C1022   1.405       .  A
C1021      H1026   1.084       .  S
C1022      C1023   1.418       .  A
C1023      C1024   1.410       .  A
C1023      C1027   1.517       .  S
C1024      H1028   1.083       .  S
C1025      F1038   1.385       .  S
C1025      F1039   1.383       .  S
C1025      F1040   1.382   1_455  S
C1027      F1035   1.385       .  S
C1027      F1036   1.383       .  S
C1027      F1037   1.383       .  S
C1041      C1042   1.402       .  A
C1041      C1046   1.403       .  A
C1041      H1051   1.085   1_556  S
C1042      C1047   1.482   1_556  S
C1042      C1043   1.417       .  A
C1043      C1044   1.407       .  A
C1043      C1048   1.520       .  S
C1044      C1045   1.403       .  A
C1044      H1049   1.084       .  S
C1045      C1046   1.415       .  A
C1046      C1050   1.517       .  S
C1047      C1052   1.414       .  A
C1047      C1056   1.399       .  A
C1048      F1064   1.382       .  S
C1048      F1065   1.382       .  S
C1048      F1066   1.384       .  S
C1050      F1061   1.384       .  S
C1050      F1062   1.383       .  S
C1050      F1063   1.383       .  S
C1052      C1053   1.409       .  A
C1052      C1057   1.518       .  S
C1053      C1054   1.405       .  A
C1053      H1058   1.083       .  S
C1054      C1055   1.423       .  A
C1055      C1056   1.403       .  A
C1055      C1059   1.523       .  S
C1056      H1060   1.083   1_554  S
C1057      F1070   1.384       .  S
C1057      F1071   1.382       .  S
C1057      F1072   1.382   1_554  S
C1059      F1067   1.385       .  S
C1059      F1068   1.383       .  S
C1059      F1069   1.383       .  S
C1073      C1074   1.404       .  A
C1073      C1078   1.413       .  A
C1073      H1083   1.083       .  S
C1074      C1079   1.487   1_545  S
C1074      C1075   1.416       .  A
C1075      C1076   1.402       .  A
C1075      C1080   1.522       .  S
C1076      C1077   1.405       .  A
C1076      H1081   1.083       .  S
C1077      C1078   1.420       .  A
C1078      C1082   1.517       .  S
C1079      C1084   1.417       .  A
C1079      C1088   1.403       .  A
C1080      F1096   1.382   1_545  S
C1080      F1097   1.382   1_545  S
C1080      F1098   1.385       .  S
C1082      F1093   1.383       .  S
C1082      F1094   1.385       .  S
C1082      F1095   1.382       .  S
C1084      C1085   1.407       .  A
C1084      C1089   1.519       .  S
C1085      C1086   1.401       .  A
C1085      H1090   1.084       .  S
C1086      C1087   1.414       .  A
C1087      C1088   1.408       .  A
C1087      C1091   1.515       .  S
C1088      H1092   1.084       .  S
C1089      F1102   1.385       .  S
C1089      F1103   1.382   1_565  S
C1089      F1104   1.383   1_565  S
C1091      F1099   1.385       .  S
C1091      F1100   1.383       .  S
C1091      F1101   1.381       .  S
C1105      C1106   1.403       .  A
C1105      C1110   1.410       .  A
C1105      H1115   1.083       .  S
C1106      C1111   1.483   1_556  S
C1106      C1107   1.415       .  A
C1107      C1108   1.403       .  A
C1107      C1112   1.520   1_556  S
C1108      C1109   1.402       .  A
C1108      H1113   1.084       .  S
C1109      C1110   1.416       .  A
C1110      C1114   1.516       .  S
C1111      C1116   1.415       .  A
C1111      C1120   1.400       .  A
C1112      F1128   1.383       .  S
C1112      F1129   1.383       .  S
C1112      F1130   1.384       .  S
C1114      F1125   1.380       .  S
C1114      F1126   1.385       .  S
C1114      F1127   1.383       .  S
C1116      C1117   1.403       .  A
C1116      C1121   1.521   1_554  S
C1117      C1118   1.407       .  A
C1117      H1122   1.083       .  S
C1118      C1119   1.424       .  A
C1119      C1120   1.410       .  A
C1119      C1123   1.518       .  S
C1120      H1124   1.084       .  S
C1121      F1134   1.385       .  S
C1121      F1135   1.382       .  S
C1121      F1136   1.382       .  S
C1123      F1131   1.385       .  S
C1123      F1132   1.383       .  S
C1123      F1133   1.383       .  S
C1137      C1138   1.404       .  A
C1137      C1142   1.408       .  A
C1137      H1147   1.083       .  S
C1138      C1143   1.483       .  S
C1138      C1139   1.414       .  A
C1139      C1140   1.403       .  A
C1139      C1144   1.517       .  S
C1140      C1141   1.401       .  A
C1140      H1145   1.084       .  S
C1141      C1142   1.415       .  A
C1142      C1146   1.516       .  S
C1143      C1148   1.417   1_554  A
C1143      C1152   1.404   1_554  A
C1144      F1160   1.383       .  S
C1144      F1161   1.382       .  S
C1144      F1162   1.385       .  S
C1146      F1157   1.380       .  S
C1146      F1158   1.385       .  S
C1146      F1159   1.383       .  S
C1148      C1149   1.401       .  A
C1148      C1153   1.523   1_556  S
C1149      C1150   1.402       .  A
C1149      H1154   1.083       .  S
C1150      C1151   1.416       .  A
C1151      C1152   1.412       .  A
C1151      C1155   1.514       .  S
C1152      H1156   1.083       .  S
C1153      F1166   1.385   1_554  S
C1153      F1167   1.382       .  S
C1153      F1168   1.382       .  S
C1155      F1163   1.382       .  S
C1155      F1164   1.383       .  S
C1155      F1165   1.385       .  S
C1169      C1170   1.400       .  A
C1169      C1174   1.401       .  A
C1169      H1179   1.085       .  S
C1170      C1175   1.481       .  S
C1170      C1171   1.414       .  A
C1171      C1172   1.410       .  A
C1171      C1176   1.516       .  S
C1172      C1173   1.405       .  A
C1172      H1177   1.084       .  S
C1173      C1174   1.418       .  A
C1174      C1178   1.518       .  S
C1175      C1180   1.416       .  A
C1175      C1184   1.397       .  A
C1176      F1192   1.383       .  S
C1176      F1193   1.381       .  S
C1176      F1194   1.384       .  S
C1178      F1189   1.385       .  S
C1178      F1190   1.384       .  S
C1178      F1191   1.381       .  S
C1180      C1181   1.406       .  A
C1180      C1185   1.522       .  S
C1181      C1182   1.407       .  A
C1181      H1186   1.083       .  S
C1182      C1183   1.428       .  A
C1183      C1184   1.407       .  A
C1183      C1187   1.520       .  S
C1184      H1188   1.084       .  S
C1185      F1198   1.384       .  S
C1185      F1199   1.382       .  S
C1185      F1200   1.381       .  S
C1187      F1195   1.383       .  S
C1187      F1196   1.381       .  S
C1187      F1197   1.385       .  S
C1201      C1202   1.406       .  A
C1201      C1206   1.414       .  A
C1201      H1211   1.083       .  S
C1202      C1207   1.485       .  S
C1202      C1203   1.416       .  A
C1203      C1204   1.400       .  A
C1203      C1208   1.522       .  S
C1204      C1205   1.403       .  A
C1204      H1209   1.084       .  S
C1205      C1206   1.415       .  A
C1206      C1210   1.515       .  S
C1207      C1212   1.414       .  A
C1207      C1216   1.402       .  A
C1208      F1224   1.382       .  S
C1208      F1225   1.382       .  S
C1208      F1226   1.385       .  S
C1210      F1221   1.383       .  S
C1210      F1222   1.385       .  S
C1210      F1223   1.382       .  S
C1212      C1213   1.403       .  A
C1212      C1217   1.520       .  S
C1213      C1214   1.405       .  A
C1213      H1218   1.088       .  S
C1214      C1215   1.421       .  A
C1215      C1216   1.411       .  A
C1215      C1219   1.517       .  S
C1216      H1220   1.087       .  S
C1217      F1230   1.385       .  S
C1217      F1231   1.382       .  S
C1217      F1232   1.383       .  S
C1219      F1227   1.385       .  S
C1219      F1228   1.382       .  S
C1219      F1229   1.380       .  S
C1233      C1234   1.402       .  A
C1233      C1238   1.409       .  A
C1233      H1243   1.083   1_556  S
C1234      C1239   1.497   1_556  S
C1234      C1235   1.417       .  A
C1235      C1236   1.416       .  A
C1235      C1240   1.518       .  S
C1236      C1237   1.406       .  A
C1236      H1241   1.083       .  S
C1237      C1238   1.418       .  A
C1238      C1242   1.514       .  S
C1239      C1244   1.418       .  A
C1239      C1248   1.409       .  A
C1240      F1256   1.383       .  S
C1240      F1257   1.382       .  S
C1240      F1258   1.384       .  S
C1242      F1253   1.381       .  S
C1242      F1254   1.385   1_556  S
C1242      F1255   1.384       .  S
C1244      C1245   1.404       .  A
C1244      C1249   1.525       .  S
C1245      C1246   1.407       .  A
C1245      H1250   1.084       .  S
C1246      C1247   1.418       .  A
C1247      C1248   1.421       .  A
C1247      C1251   1.515       .  S
C1248      H1252   1.083       .  S
C1249      F1262   1.384       .  S
C1249      F1263   1.383   1_554  S
C1249      F1264   1.381   1_554  S
C1251      F1259   1.384       .  S
C1251      F1260   1.382       .  S
C1251      F1261   1.384       .  S
C1265      C1266   1.403       .  A
C1265      C1270   1.410       .  A
C1265      H1275   1.083       .  S
C1266      C1271   1.482       .  S
C1266      C1267   1.415       .  A
C1267      C1268   1.403       .  A
C1267      C1272   1.520       .  S
C1268      C1269   1.403       .  A
C1268      H1273   1.083       .  S
C1269      C1270   1.417       .  A
C1270      C1274   1.517       .  S
C1271      C1276   1.413       .  A
C1271      C1280   1.404       .  A
C1272      F1288   1.383       .  S
C1272      F1289   1.382       .  S
C1272      F1290   1.385       .  S
C1274      F1285   1.383       .  S
C1274      F1286   1.385       .  S
C1274      F1287   1.382       .  S
C1276      C1277   1.399       .  A
C1276      C1281   1.522       .  S
C1277      C1278   1.406       .  A
C1277      H1282   1.083       .  S
C1278      C1279   1.421       .  A
C1279      C1280   1.414       .  A
C1279      C1283   1.517       .  S
C1280      H1284   1.083       .  S
C1281      F1294   1.385       .  S
C1281      F1295   1.382       .  S
C1281      F1296   1.382       .  S
C1283      F1291   1.382       .  S
C1283      F1292   1.383       .  S
C1283      F1293   1.385       .  S
C1297      C1298   1.403       .  A
C1297      C1302   1.412       .  A
C1297      H1307   1.083       .  S
C1298      C1303   1.480       .  S
C1298      C1299   1.413       .  A
C1299      C1300   1.400       .  A
C1299      C1304   1.523       .  S
C1300      C1301   1.408       .  A
C1300      H1305   1.083       .  S
C1301      C1302   1.420       .  A
C1302      C1306   1.516       .  S
C1303      C1308   1.414       .  A
C1303      C1312   1.404       .  A
C1304      F1320   1.382       .  S
C1304      F1321   1.383       .  S
C1304      F1322   1.384       .  S
C1306      F1317   1.382       .  S
C1306      F1318   1.385       .  S
C1306      F1319   1.383       .  S
C1308      C1309   1.400       .  A
C1308      C1313   1.520       .  S
C1309      C1310   1.401       .  A
C1309      H1314   1.082       .  S
C1310      C1311   1.415       .  A
C1311      C1312   1.408       .  A
C1311      C1315   1.517       .  S
C1312      H1316   1.084       .  S
C1313      F1326   1.385       .  S
C1313      F1327   1.382       .  S
C1313      F1328   1.382       .  S
C1315      F1323   1.385       .  S
C1315      F1324   1.383       .  S
C1315      F1325   1.382       .  S
C1329      C1330   1.397       .  A
C1329      C1334   1.400       .  A
C1329      H1339   1.085       .  S
C1330      C1335   1.484       .  S
C1330      C1331   1.414       .  A
C1331      C1332   1.411       .  A
C1331      C1336   1.515       .  S
C1332      C1333   1.407       .  A
C1332      H1337   1.083       .  S
C1333      C1334   1.422       .  A
C1334      C1338   1.516       .  S
C1335      C1340   1.417       .  A
C1335      C1344   1.403       .  A
C1336      F1352   1.383       .  S
C1336      F1353   1.382       .  S
C1336      F1354   1.385       .  S
C1338      F1349   1.382       .  S
C1338      F1350   1.385       .  S
C1338      F1351   1.383       .  S
C1340      C1341   1.403       .  A
C1340      C1345   1.523       .  S
C1341      C1342   1.404       .  A
C1341      H1346   1.084       .  S
C1342      C1343   1.419       .  A
C1343      C1344   1.412       .  A
C1343      C1347   1.517       .  S
C1344      H1348   1.083       .  S
C1345      F1358   1.384       .  S
C1345      F1359   1.382       .  S
C1345      F1360   1.382       .  S
C1347      F1355   1.385       .  S
C1347      F1356   1.383       .  S
C1347      F1357   1.383       .  S
C1361      C1362   1.401       .  A
C1361      C1366   1.408       .  A
C1361      H1371   1.084   1_554  S
C1362      C1367   1.490   1_554  S
C1362      C1363   1.414       .  A
C1363      C1364   1.410       .  A
C1363      C1368   1.519       .  S
C1364      C1365   1.409       .  A
C1364      H1369   1.081       .  S
C1365      C1366   1.424       .  A
C1366      C1370   1.518       .  S
C1367      C1372   1.415       .  A
C1367      C1376   1.404       .  A
C1368      F1384   1.382       .  S
C1368      F1385   1.382       .  S
C1368      F1386   1.384       .  S
C1370      F1381   1.383       .  S
C1370      F1382   1.385       .  S
C1370      F1383   1.384       .  S
C1372      C1373   1.405       .  A
C1372      C1377   1.523   1_556  S
C1373      C1374   1.408       .  A
C1373      H1378   1.083       .  S
C1374      C1375   1.423       .  A
C1375      C1376   1.416       .  A
C1375      C1379   1.516       .  S
C1376      H1380   1.083       .  S
C1377      F1390   1.384       .  S
C1377      F1391   1.382       .  S
C1377      F1392   1.382       .  S
C1379      F1387   1.382       .  S
C1379      F1388   1.382       .  S
C1379      F1389   1.385       .  S
C1393      C1394   1.405       .  A
C1393      C1398   1.413       .  A
C1393      H1403   1.083       .  S
C1394      C1399   1.482   1_556  S
C1394      C1395   1.417       .  A
C1395      C1396   1.399       .  A
C1395      C1400   1.525   1_556  S
C1396      C1397   1.403       .  A
C1396      H1401   1.084       .  S
C1397      C1398   1.416       .  A
C1398      C1402   1.515       .  S
C1399      C1404   1.415       .  A
C1399      C1408   1.402       .  A
C1400      F1416   1.382       .  S
C1400      F1417   1.382       .  S
C1400      F1418   1.384   1_554  S
C1402      F1413   1.382       .  S
C1402      F1414   1.384       .  S
C1402      F1415   1.382       .  S
C1404      C1405   1.407       .  A
C1404      C1409   1.517       .  S
C1405      C1406   1.401       .  A
C1405      H1410   1.082       .  S
C1406      C1407   1.414       .  A
C1407      C1408   1.405       .  A
C1407      C1411   1.517       .  S
C1408      H1412   1.083       .  S
C1409      F1422   1.384       .  S
C1409      F1423   1.382   1_554  S
C1409      F1424   1.383   1_554  S
C1411      F1419   1.385       .  S
C1411      F1420   1.383       .  S
C1411      F1421   1.382       .  S
C1425      C1426   1.402       .  A
C1425      C1430   1.403       .  A
C1425      H1435   1.083       .  S
C1426      C1431   1.473       .  S
C1426      C1427   1.417       .  A
C1427      C1428   1.400       .  A
C1427      C1432   1.520       .  S
C1428      C1429   1.401       .  A
C1428      H1433   1.085       .  S
C1429      C1430   1.414       .  A
C1430      C1434   1.517       .  S
C1431      C1436   1.410       .  A
C1431      C1440   1.398       .  A
C1432      F1448   1.383       .  S
C1432      F1449   1.382       .  S
C1432      F1450   1.383       .  S
C1434      F1445   1.384       .  S
C1434      F1446   1.382       .  S
C1434      F1447   1.383       .  S
C1436      C1437   1.406       .  A
C1436      C1441   1.516       .  S
C1437      C1438   1.407       .  A
C1437      H1442   1.084       .  S
C1438      C1439   1.421       .  A
C1439      C1440   1.401       .  A
C1439      C1443   1.522       .  S
C1440      H1444   1.084       .  S
C1441      F1454   1.384       .  S
C1441      F1455   1.383       .  S
C1441      F1456   1.383       .  S
C1443      F1451   1.385       .  S
C1443      F1452   1.383       .  S
C1443      F1453   1.383       .  S
C1457      C1458   1.401       .  A
C1457      C1462   1.412       .  A
C1457      H1467   1.083       .  S
C1458      C1463   1.483       .  S
C1458      C1459   1.414       .  A
C1459      C1460   1.401       .  A
C1459      C1464   1.525       .  S
C1460      C1461   1.410       .  A
C1460      H1465   1.082       .  S
C1461      C1462   1.427       .  A
C1462      C1466   1.520       .  S
C1463      C1468   1.415       .  A
C1463      C1472   1.401       .  A
C1464      F1480   1.382       .  S
C1464      F1481   1.382       .  S
C1464      F1482   1.384       .  S
C1466      F1477   1.385       .  S
C1466      F1478   1.383       .  S
C1466      F1479   1.383       .  S
C1468      C1469   1.408       .  A
C1468      C1473   1.518       .  S
C1469      C1470   1.403       .  A
C1469      H1474   1.083       .  S
C1470      C1471   1.414       .  A
C1471      C1472   1.403       .  A
C1471      C1475   1.514       .  S
C1472      H1476   1.083       .  S
C1473      F1486   1.385       .  S
C1473      F1487   1.382       .  S
C1473      F1488   1.383       .  S
C1475      F1483   1.383       .  S
C1475      F1484   1.381       .  S
C1475      F1485   1.385       .  S
C1489      C1490   1.398       .  A
C1489      C1494   1.408       .  A
C1489      H1499   1.083       .  S
C1490      C1495   1.487       .  S
C1490      C1491   1.414       .  A
C1491      C1492   1.410       .  A
C1491      C1496   1.520       .  S
C1492      C1493   1.410       .  A
C1492      H1497   1.083       .  S
C1493      C1494   1.427       .  A
C1494      C1498   1.519       .  S
C1495      C1500   1.417       .  A
C1495      C1504   1.403       .  A
C1496      F1512   1.382       .  S
C1496      F1513   1.382       .  S
C1496      F1514   1.385       .  S
C1498      F1509   1.385       .  S
C1498      F1510   1.383       .  S
C1498      F1511   1.380       .  S
C1500      C1501   1.409       .  A
C1500      C1505   1.519       .  S
C1501      C1502   1.403       .  A
C1501      H1506   1.083       .  S
C1502      C1503   1.415       .  A
C1503      C1504   1.407       .  A
C1503      C1507   1.518       .  S
C1504      H1508   1.083       .  S
C1505      F1518   1.384       .  S
C1505      F1519   1.382       .  S
C1505      F1520   1.382       .  S
C1507      F1515   1.384       .  S
C1507      F1516   1.383       .  S
C1507      F1517   1.382       .  S
C1521      C1522   1.399       .  A
C1521      C1526   1.406       .  A
C1521      H1531   1.084       .  S
C1522      C1527   1.481       .  S
C1522      C1523   1.414       .  A
C1523      C1524   1.406       .  A
C1523      C1528   1.520       .  S
C1524      C1525   1.405       .  A
C1524      H1529   1.084       .  S
C1525      C1526   1.421       .  A
C1526      C1530   1.518       .  S
C1527      C1532   1.415       .  A
C1527      C1536   1.404       .  A
C1528      F1544   1.382       .  S
C1528      F1545   1.382       .  S
C1528      F1546   1.384       .  S
C1530      F1541   1.382       .  S
C1530      F1542   1.385       .  S
C1530      F1543   1.382       .  S
C1532      C1533   1.404       .  A
C1532      C1537   1.522       .  S
C1533      C1534   1.403       .  A
C1533      H1538   1.074       .  S
C1534      C1535   1.414       .  A
C1535      C1536   1.408       .  A
C1535      C1539   1.517       .  S
C1536      H1540   1.082       .  S
C1537      F1550   1.385       .  S
C1537      F1551   1.382       .  S
C1537      F1552   1.382       .  S
C1539      F1547   1.382       .  S
C1539      F1548   1.383       .  S
C1539      F1549   1.384       .  S
C1553      C1554   1.405       .  A
C1553      C1558   1.412       .  A
C1553      H1563   1.084       .  S
C1554      C1559   1.491       .  S
C1554      C1555   1.417       .  A
C1555      C1556   1.404       .  A
C1555      C1560   1.522       .  S
C1556      C1557   1.402       .  A
C1556      H1561   1.083       .  S
C1557      C1558   1.422       .  A
C1558      C1562   1.518       .  S
C1559      C1564   1.417       .  A
C1559      C1568   1.403       .  A
C1560      F1576   1.382       .  S
C1560      F1577   1.383       .  S
C1560      F1578   1.384       .  S
C1562      F1573   1.383       .  S
C1562      F1574   1.383       .  S
C1562      F1575   1.379       .  S
C1564      C1565   1.407       .  A
C1564      C1569   1.520       .  S
C1565      C1566   1.405       .  A
C1565      H1570   1.083       .  S
C1566      C1567   1.419       .  A
C1567      C1568   1.409       .  A
C1567      C1571   1.516       .  S
C1568      H1572   1.085       .  S
C1569      F1582   1.385       .  S
C1569      F1583   1.382       .  S
C1569      F1584   1.383       .  S
C1571      F1579   1.384       .  S
C1571      F1580   1.380       .  S
C1571      F1581   1.383       .  S
C1585      C1586   1.401       .  A
C1585      C1590   1.409       .  A
C1585      H1595   1.083       .  S
C1586      C1591   1.486       .  S
C1586      C1587   1.416       .  A
C1587      C1588   1.406       .  A
C1587      C1592   1.521       .  S
C1588      C1589   1.406       .  A
C1588      H1593   1.083       .  S
C1589      C1590   1.422       .  A
C1590      C1594   1.519       .  S
C1591      C1596   1.416       .  A
C1591      C1600   1.402       .  A
C1592      F1608   1.382       .  S
C1592      F1609   1.382       .  S
C1592      F1610   1.385       .  S
C1594      F1605   1.384       .  S
C1594      F1606   1.385       .  S
C1594      F1607   1.382       .  S
C1596      C1597   1.408       .  A
C1596      C1601   1.518       .  S
C1597      C1598   1.403       .  A
C1597      H1602   1.084       .  S
C1598      C1599   1.418       .  A
C1599      C1600   1.407       .  A
C1599      C1603   1.519       .  S
C1600      H1604   1.083       .  S
C1601      F1614   1.385       .  S
C1601      F1615   1.382       .  S
C1601      F1616   1.382       .  S
C1603      F1611   1.385       .  S
C1603      F1612   1.380       .  S
C1603      F1613   1.380       .  S
C1617      C1618   1.401       .  A
C1617      C1622   1.409       .  A
C1617      H1627   1.084       .  S
C1618      C1623   1.478       .  S
C1618      C1619   1.415       .  A
C1619      C1620   1.401       .  A
C1619      C1624   1.520       .  S
C1620      C1621   1.405       .  A
C1620      H1625   1.082       .  S
C1621      C1622   1.424       .  A
C1622      C1626   1.519       .  S
C1623      C1628   1.412       .  A
C1623      C1632   1.400       .  A
C1624      F1640   1.383       .  S
C1624      F1641   1.381       .  S
C1624      F1642   1.384       .  S
C1626      F1637   1.385       .  S
C1626      F1638   1.382       .  S
C1626      F1639   1.383       .  S
C1628      C1629   1.408       .  A
C1628      C1633   1.516       .  S
C1629      C1630   1.407       .  A
C1629      H1634   1.083       .  S
C1630      C1631   1.421       .  A
C1631      C1632   1.403       .  A
C1631      C1635   1.522       .  S
C1632      H1636   1.083       .  S
C1633      F1646   1.385       .  S
C1633      F1647   1.383       .  S
C1633      F1648   1.382       .  S
C1635      F1643   1.382       .  S
C1635      F1644   1.383       .  S
C1635      F1645   1.385       .  S
C1649      C1650   1.397       .  A
C1649      C1654   1.402       .  A
C1649      H1659   1.084       .  S
C1650      C1655   1.478       .  S
C1650      C1651   1.409       .  A
C1651      C1652   1.409       .  A
C1651      C1656   1.516       .  S
C1652      C1653   1.411       .  A
C1652      H1657   1.083       .  S
C1653      C1654   1.427       .  A
C1654      C1658   1.523       .  S
C1655      C1660   1.415       .  A
C1655      C1664   1.404       .  A
C1656      F1672   1.382       .  S
C1656      F1673   1.383       .  S
C1656      F1674   1.384       .  S
C1658      F1669   1.385       .  S
C1658      F1670   1.383       .  S
C1658      F1671   1.382       .  S
C1660      C1661   1.401       .  A
C1660      C1665   1.519       .  S
C1661      C1662   1.403       .  A
C1661      H1666   1.085       .  S
C1662      C1663   1.416       .  A
C1663      C1664   1.408       .  A
C1663      C1667   1.518       .  S
C1664      H1668   1.084       .  S
C1665      F1678   1.383       .  S
C1665      F1679   1.383       .  S
C1665      F1680   1.382       .  S
C1667      F1675   1.382       .  S
C1667      F1676   1.382       .  S
C1667      F1677   1.385       .  S
C1681      C1682   1.403       .  A
C1681      C1686   1.409       .  A
C1681      H1691   1.083       .  S
C1682      C1687   1.493       .  S
C1682      C1683   1.419       .  A
C1683      C1684   1.410       .  A
C1683      C1688   1.519       .  S
C1684      C1685   1.403       .  A
C1684      H1689   1.083       .  S
C1685      C1686   1.419       .  A
C1686      C1690   1.516       .  S
C1687      C1692   1.415       .  A
C1687      C1696   1.399       .  A
C1688      F1704   1.381       .  S
C1688      F1705   1.383       .  S
C1688      F1706   1.384       .  S
C1690      F1701   1.383       .  S
C1690      F1702   1.385       .  S
C1690      F1703   1.381       .  S
C1692      C1693   1.409       .  A
C1692      C1697   1.520       .  S
C1693      C1694   1.411       .  A
C1693      H1698   1.082       .  S
C1694      C1695   1.430       .  A
C1695      C1696   1.409       .  A
C1695      C1699   1.523       .  S
C1696      H1700   1.083       .  S
C1697      F1710   1.385       .  S
C1697      F1711   1.381       .  S
C1697      F1712   1.383       .  S
C1699      F1707   1.385       .  S
C1699      F1708   1.380       .  S
C1699      F1709   1.383       .  S
C1713      C1714   1.395       .  A
C1713      C1718   1.402       .  A
C1713      H1723   1.084       .  S
C1714      C1719   1.480       .  S
C1714      C1715   1.412       .  A
C1715      C1716   1.410       .  A
C1715      C1720   1.518       .  S
C1716      C1717   1.412       .  A
C1716      H1721   1.082       .  S
C1717      C1718   1.424       .  A
C1718      C1722   1.514       .  S
C1719      C1724   1.416       .  A
C1719      C1728   1.403       .  A
C1720      F1736   1.383       .  S
C1720      F1737   1.382       .  S
C1720      F1738   1.385       .  S
C1722      F1733   1.383       .  S
C1722      F1734   1.385       .  S
C1722      F1735   1.383       .  S
C1724      C1725   1.402       .  A
C1724      C1729   1.523       .  S
C1725      C1726   1.404       .  A
C1725      H1730   1.083       .  S
C1726      C1727   1.418       .  A
C1727      C1728   1.411       .  A
C1727      C1731   1.517       .  S
C1728      H1732   1.083       .  S
C1729      F1742   1.385       .  S
C1729      F1743   1.382       .  S
C1729      F1744   1.381       .  S
C1731      F1739   1.382       .  S
C1731      F1740   1.383       .  S
C1731      F1741   1.384       .  S
C1745      C1746   1.398       .  A
C1745      C1750   1.401       .  A
C1745      H1755   1.084       .  S
C1746      C1751   1.480       .  S
C1746      C1747   1.411       .  A
C1747      C1748   1.409       .  A
C1747      C1752   1.517       .  S
C1748      C1749   1.411       .  A
C1748      H1753   1.082       .  S
C1749      C1750   1.427       .  A
C1750      C1754   1.524       .  S
C1751      C1756   1.414       .  A
C1751      C1760   1.403       .  A
C1752      F1768   1.382       .  S
C1752      F1769   1.383       .  S
C1752      F1770   1.384       .  S
C1754      F1765   1.385       .  S
C1754      F1766   1.383       .  S
C1754      F1767   1.381       .  S
C1756      C1757   1.400       .  A
C1756      C1761   1.516       .  S
C1757      C1758   1.402       .  A
C1757      H1762   1.083       .  S
C1758      C1759   1.419       .  A
C1759      C1760   1.407       .  A
C1759      C1763   1.517       .  S
C1760      H1764   1.083       .  S
C1761      F1774   1.384       .  S
C1761      F1775   1.383       .  S
C1761      F1776   1.383       .  S
C1763      F1771   1.382       .  S
C1763      F1772   1.383       .  S
C1763      F1773   1.385       .  S
C1777      C1778   1.402       .  A
C1777      C1782   1.410       .  A
C1777      H1787   1.083       .  S
C1778      C1783   1.497       .  S
C1778      C1779   1.418       .  A
C1779      C1780   1.414       .  A
C1779      C1784   1.519       .  S
C1780      C1781   1.408       .  A
C1780      H1785   1.083       .  S
C1781      C1782   1.421       .  A
C1782      C1786   1.517       .  S
C1783      C1788   1.415       .  A
C1783      C1792   1.401       .  A
C1784      F1800   1.382       .  S
C1784      F1801   1.382       .  S
C1784      F1802   1.385       .  S
C1786      F1797   1.385       .  S
C1786      F1798   1.376       .  S
C1786      F1799   1.381       .  S
C1788      C1789   1.411       .  A
C1788      C1793   1.521       .  S
C1789      C1790   1.412       .  A
C1789      H1794   1.081       .  S
C1790      C1791   1.431       .  A
C1791      C1792   1.414       .  A
C1791      C1795   1.523       .  S
C1792      H1796   1.083       .  S
C1793      F1806   1.385       .  S
C1793      F1807   1.382       .  S
C1793      F1808   1.382       .  S
C1795      F1803   1.382       .  S
C1795      F1804   1.382       .  S
C1795      F1805   1.385       .  S
C1809      C1810   1.401       .  A
C1809      C1814   1.413       .  A
C1809      H1819   1.083       .  S
C1810      C1815   1.489       .  S
C1810      C1811   1.415       .  A
C1811      C1812   1.405       .  A
C1811      C1816   1.522       .  S
C1812      C1813   1.411       .  A
C1812      H1817   1.082       .  S
C1813      C1814   1.427       .  A
C1814      C1818   1.516       .  S
C1815      C1820   1.416       .  A
C1815      C1824   1.404       .  A
C1816      F1832   1.382       .  S
C1816      F1833   1.383       .  S
C1816      F1834   1.385       .  S
C1818      F1829   1.382       .  S
C1818      F1830   1.385       .  S
C1818      F1831   1.379       .  S
C1820      C1821   1.405       .  A
C1820      C1825   1.520       .  S
C1821      C1822   1.400       .  A
C1821      H1826   1.083       .  S
C1822      C1823   1.417       .  A
C1823      C1824   1.412       .  A
C1823      C1827   1.515       .  S
C1824      H1828   1.084       .  S
C1825      F1838   1.382       .  S
C1825      F1839   1.382       .  S
C1825      F1840   1.383       .  S
C1827      F1835   1.384       .  S
C1827      F1836   1.383       .  S
C1827      F1837   1.379       .  S
C1841      C1842   1.398       .  A
C1841      C1846   1.408       .  A
C1841      H1851   1.083       .  S
C1842      C1847   1.478       .  S
C1842      C1843   1.412       .  A
C1843      C1844   1.401       .  A
C1843      C1848   1.522       .  S
C1844      C1845   1.408       .  A
C1844      H1849   1.082       .  S
C1845      C1846   1.429       .  A
C1846      C1850   1.523       .  S
C1847      C1852   1.417       .  A
C1847      C1856   1.401       .  A
C1848      F1864   1.382       .  S
C1848      F1865   1.382       .  S
C1848      F1866   1.385       .  S
C1850      F1861   1.378       .  S
C1850      F1862   1.385       .  S
C1850      F1863   1.379       .  S
C1852      C1853   1.405       .  A
C1852      C1857   1.520       .  S
C1853      C1854   1.401       .  A
C1853      H1858   1.084       .  S
C1854      C1855   1.415       .  A
C1855      C1856   1.405       .  A
C1855      C1859   1.518       .  S
C1856      H1860   1.083       .  S
C1857      F1870   1.385       .  S
C1857      F1871   1.382       .  S
C1857      F1872   1.383       .  S
C1859      F1867   1.384       .  S
C1859      F1868   1.382       .  S
C1859      F1869   1.382       .  S
C1873      C1874   1.404       .  A
C1873      C1878   1.411       .  A
C1873      H1883   1.083       .  S
C1874      C1879   1.502       .  S
C1874      C1875   1.419       .  A
C1875      C1876   1.414       .  A
C1875      C1880   1.518       .  S
C1876      C1877   1.408       .  A
C1876      H1881   1.083       .  S
C1877      C1878   1.425       .  A
C1878      C1882   1.520       .  S
C1879      C1884   1.423       .  A
C1879      C1888   1.407       .  A
C1880      F1896   1.381       .  S
C1880      F1897   1.383       .  S
C1880      F1898   1.385       .  S
C1882      F1893   1.385       .  S
C1882      F1894   1.382       .  S
C1882      F1895   1.382       .  S
C1884      C1885   1.412       .  A
C1884      C1889   1.518       .  S
C1885      C1886   1.404       .  A
C1885      H1890   1.083       .  S
C1886      C1887   1.413       .  A
C1887      C1888   1.411       .  A
C1887      C1891   1.515       .  S
C1888      H1892   1.082       .  S
C1889      F1902   1.385       .  S
C1889      F1903   1.383       .  S
C1889      F1904   1.383       .  S
C1891      F1899   1.383       .  S
C1891      F1900   1.383       .  S
C1891      F1901   1.384       .  S
C1905      C1906   1.399       .  A
C1905      C1910   1.402       .  A
C1905      H1915   1.086       .  S
C1906      C1911   1.483       .  S
C1906      C1907   1.416       .  A
C1907      C1908   1.408       .  A
C1907      C1912   1.519       .  S
C1908      C1909   1.403       .  A
C1908      H1913   1.084       .  S
C1909      C1910   1.419       .  A
C1910      C1914   1.517       .  S
C1911      C1916   1.414       .  A
C1911      C1920   1.399       .  A
C1912      F1928   1.382       .  S
C1912      F1929   1.382       .  S
C1912      F1930   1.384       .  S
C1914      F1925   1.382       .  S
C1914      F1926   1.383       .  S
C1914      F1927   1.380       .  S
C1916      C1917   1.407       .  A
C1916      C1921   1.519       .  S
C1917      C1918   1.406       .  A
C1917      H1922   1.083       .  S
C1918      C1919   1.423       .  A
C1919      C1920   1.406       .  A
C1919      C1923   1.520       .  S
C1920      H1924   1.084       .  S
C1921      F1934   1.385       .  S
C1921      F1935   1.382       .  S
C1921      F1936   1.382       .  S
C1923      F1931   1.382       .  S
C1923      F1932   1.380       .  S
C1923      F1933   1.385       .  S
C1937      C1938   1.402       .  A
C1937      C1942   1.407       .  A
C1937      H1947   1.083       .  S
C1938      C1943   1.485       .  S
C1938      C1939   1.413       .  A
C1939      C1940   1.405       .  A
C1939      C1944   1.518       .  S
C1940      C1941   1.412       .  A
C1940      H1945   1.084       .  S
C1941      C1942   1.426       .  A
C1942      C1946   1.522       .  S
C1943      C1948   1.416       .  A
C1943      C1952   1.402       .  A
C1944      F1960   1.383       .  S
C1944      F1961   1.383       .  S
C1944      F1962   1.384       .  S
C1946      F1957   1.385       .  S
C1946      F1958   1.383       .  S
C1946      F1959   1.384       .  S
C1948      C1949   1.408       .  A
C1948      C1953   1.516       .  S
C1949      C1950   1.402       .  A
C1949      H1954   1.084       .  S
C1950      C1951   1.414       .  A
C1951      C1952   1.403       .  A
C1951      C1955   1.512       .  S
C1952      H1956   1.084       .  S
C1953      F1966   1.384       .  S
C1953      F1967   1.381       .  S
C1953      F1968   1.383       .  S
C1955      F1963   1.381       .  S
C1955      F1964   1.384       .  S
C1955      F1965   1.385       .  S
C1969      C1970   1.402       .  A
C1969      C1974   1.407       .  A
C1969      H1979   1.083       .  S
C1970      C1975   1.493       .  S
C1970      C1971   1.420       .  A
C1971      C1972   1.410       .  A
C1971      C1976   1.515       .  S
C1972      C1973   1.403       .  A
C1972      H1977   1.085       .  S
C1973      C1974   1.422       .  A
C1974      C1978   1.521       .  S
C1975      C1980   1.419       .  A
C1975      C1984   1.399       .  A
C1976      F1992   1.383       .  S
C1976      F1993   1.382       .  S
C1976      F1994   1.384       .  S
C1978      F1989   1.383       .  S
C1978      F1990   1.385       .  S
C1978      F1991   1.382       .  S
C1980      C1981   1.416       .  A
C1980      C1985   1.516       .  S
C1981      C1982   1.407       .  A
C1981      H1986   1.083       .  S
C1982      C1983   1.420       .  A
C1983      C1984   1.404       .  A
C1983      C1987   1.516       .  S
C1984      H1988   1.084       .  S
C1985      F1998   1.385       .  S
C1985      F1999   1.382       .  S
C1985      F2000   1.384       .  S
C1987      F1995   1.381       .  S
C1987      F1996   1.379       .  S
C1987      F1997   1.385       .  S
C2001      C2002   1.395       .  A
C2001      C2006   1.397       .  A
C2001      H2011   1.085       .  S
C2002      C2007   1.470       .  S
C2002      C2003   1.414       .  A
C2003      C2004   1.404       .  A
C2003      C2008   1.518       .  S
C2004      C2005   1.403       .  A
C2004      H2009   1.081       .  S
C2005      C2006   1.418       .  A
C2006      C2010   1.518       .  S
C2007      C2012   1.417       .  A
C2007      C2016   1.395       .  A
C2008      F2024   1.383       .  S
C2008      F2025   1.381       .  S
C2008      F2026   1.385       .  S
C2010      F2021   1.383       .  S
C2010      F2022   1.384       .  S
C2010      F2023   1.381       .  S
C2012      C2013   1.403       .  A
C2012      C2017   1.521       .  S
C2013      C2014   1.402       .  A
C2013      H2018   1.083       .  S
C2014      C2015   1.420       .  A
C2015      C2016   1.400       .  A
C2015      C2019   1.515       .  S
C2016      H2020   1.084       .  S
C2017      F2030   1.385       .  S
C2017      F2031   1.382       .  S
C2017      F2032   1.382       .  S
C2019      F2027   1.385       .  S
C2019      F2028   1.380       .  S
C2019      F2029   1.382       .  S
C2033      C2034   1.400       .  A
C2033      C2038   1.406       .  A
C2033      H2043   1.084       .  S
C2034      C2039   1.486       .  S
C2034      C2035   1.414       .  A
C2035      C2036   1.412       .  A
C2035      C2040   1.517       .  S
C2036      C2037   1.406       .  A
C2036      H2041   1.080       .  S
C2037      C2038   1.422       .  A
C2038      C2042   1.520       .  S
C2039      C2044   1.418       .  A
C2039      C2048   1.403       .  A
C2040      F2056   1.382       .  S
C2040      F2057   1.383       .  S
C2040      F2058   1.381       .  S
C2042      F2053   1.385       .  S
C2042      F2054   1.382       .  S
C2042      F2055   1.383       .  S
C2044      C2045   1.409       .  A
C2044      C2049   1.517       .  S
C2045      C2046   1.405       .  A
C2045      H2050   1.084       .  S
C2046      C2047   1.417       .  A
C2047      C2048   1.405       .  A
C2047      C2051   1.517       .  S
C2048      H2052   1.083       .  S
C2049      F2062   1.384       .  S
C2049      F2063   1.383       .  S
C2049      F2064   1.382       .  S
C2051      F2059   1.382       .  S
C2051      F2060   1.382       .  S
C2051      F2061   1.385       .  S
C2065      C2066   1.402       .  A
C2065      C2070   1.410       .  A
C2065      H2075   1.083       .  S
C2066      C2071   1.484       .  S
C2066      C2067   1.413       .  A
C2067      C2068   1.404       .  A
C2067      C2072   1.521       .  S
C2068      C2069   1.407       .  A
C2068      H2073   1.083       .  S
C2069      C2070   1.422       .  A
C2070      C2074   1.518       .  S
C2071      C2076   1.414       .  A
C2071      C2080   1.403       .  A
C2072      F2088   1.382       .  S
C2072      F2089   1.382       .  S
C2072      F2090   1.384       .  S
C2074      F2085   1.383       .  S
C2074      F2086   1.385       .  S
C2074      F2087   1.379       .  S
C2076      C2077   1.405       .  A
C2076      C2081   1.520       .  S
C2077      C2078   1.405       .  A
C2077      H2082   1.081       .  S
C2078      C2079   1.418       .  A
C2079      C2080   1.408       .  A
C2079      C2083   1.520       .  S
C2080      H2084   1.084       .  S
C2081      F2094   1.385       .  S
C2081      F2095   1.382       .  S
C2081      F2096   1.382       .  S
C2083      F2091   1.384       .  S
C2083      F2092   1.382       .  S
C2083      F2093   1.384       .  S
C2097      C2098   1.399       .  A
C2097      C2102   1.404       .  A
C2097      H2107   1.083       .  S
C2098      C2103   1.484       .  S
C2098      C2099   1.415       .  A
C2099      C2100   1.411       .  A
C2099      C2104   1.517       .  S
C2100      C2101   1.405       .  A
C2100      H2105   1.083       .  S
C2101      C2102   1.417       .  A
C2102      C2106   1.515       .  S
C2103      C2108   1.415       .  A
C2103      C2112   1.406       .  A
C2104      F2120   1.383       .  S
C2104      F2121   1.382       .  S
C2104      F2122   1.384       .  S
C2106      F2117   1.385       .  S
C2106      F2118   1.382       .  S
C2106      F2119   1.382       .  S
C2108      C2109   1.401       .  A
C2108      C2113   1.524       .  S
C2109      C2110   1.406       .  A
C2109      H2114   1.083       .  S
C2110      C2111   1.419       .  A
C2111      C2112   1.415       .  A
C2111      C2115   1.517       .  S
C2112      H2116   1.083       .  S
C2113      F2126   1.384       .  S
C2113      F2127   1.383       .  S
C2113      F2128   1.381       .  S
C2115      F2123   1.384       .  S
C2115      F2124   1.384       .  S
C2115      F2125   1.382       .  S
C2129      C2130   1.402       .  A
C2129      C2134   1.406       .  A
C2129      H2139   1.084       .  S
C2130      C2135   1.475       .  S
C2130      C2131   1.415       .  A
C2131      C2132   1.400       .  A
C2131      C2136   1.520       .  S
C2132      C2133   1.399       .  A
C2132      H2137   1.084       .  S
C2133      C2134   1.414       .  A
C2134      C2138   1.519       .  S
C2135      C2140   1.410       .  A
C2135      C2144   1.397       .  A
C2136      F2152   1.382       .  S
C2136      F2153   1.382       .  S
C2136      F2154   1.385       .  S
C2138      F2149   1.384       .  S
C2138      F2150   1.384       .  S
C2138      F2151   1.382       .  S
C2140      C2141   1.403       .  A
C2140      C2145   1.520       .  S
C2141      C2142   1.409       .  A
C2141      H2146   1.083       .  S
C2142      C2143   1.427       .  A
C2143      C2144   1.406       .  A
C2143      C2147   1.520       .  S
C2144      H2148   1.084       .  S
C2145      F2158   1.384       .  S
C2145      F2159   1.383       .  S
C2145      F2160   1.382       .  S
C2147      F2155   1.385       .  S
C2147      F2156   1.383       .  S
C2147      F2157   1.382       .  S
C2161      C2162   1.403       .  A
C2161      C2166   1.411       .  A
C2161      H2171   1.083       .  S
C2162      C2167   1.479   1_565  S
C2162      C2163   1.416       .  A
C2163      C2164   1.398       .  A
C2163      C2168   1.522   1_565  S
C2164      C2165   1.402       .  A
C2164      H2169   1.083       .  S
C2165      C2166   1.418       .  A
C2166      C2170   1.517       .  S
C2167      C2172   1.417       .  A
C2167      C2176   1.401       .  A
C2168      F2184   1.382       .  S
C2168      F2185   1.382       .  S
C2168      F2186   1.385   1_545  S
C2170      F2181   1.383       .  S
C2170      F2182   1.384       .  S
C2170      F2183   1.384       .  S
C2172      C2173   1.405       .  A
C2172      C2177   1.520       .  S
C2173      C2174   1.401       .  A
C2173      H2178   1.084       .  S
C2174      C2175   1.414       .  A
C2175      C2176   1.405       .  A
C2175      C2179   1.515       .  S
C2176      H2180   1.084       .  S
C2177      F2190   1.385       .  S
C2177      F2191   1.382   1_545  S
C2177      F2192   1.383   1_545  S
C2179      F2187   1.384       .  S
C2179      F2188   1.383       .  S
C2179      F2189   1.382       .  S
C2193      C2194   1.404       .  A
C2193      C2198   1.414       .  A
C2193      H2203   1.083       .  S
C2194      C2199   1.481       .  S
C2194      C2195   1.413       .  A
C2195      C2196   1.397       .  A
C2195      C2200   1.526       .  S
C2196      C2197   1.410       .  A
C2196      H2201   1.082       .  S
C2197      C2198   1.421       .  A
C2198      C2202   1.516       .  S
C2199      C2204   1.415       .  A
C2199      C2208   1.400       .  A
C2200      F2216   1.381       .  S
C2200      F2217   1.382       .  S
C2200      F2218   1.385       .  S
C2202      F2213   1.385       .  S
C2202      F2214   1.383       .  S
C2202      F2215   1.383       .  S
C2204      C2205   1.407       .  A
C2204      C2209   1.519       .  S
C2205      C2206   1.405       .  A
C2205      H2210   1.083       .  S
C2206      C2207   1.418       .  A
C2207      C2208   1.404       .  A
C2207      C2211   1.516       .  S
C2208      H2212   1.084       .  S
C2209      F2222   1.385       .  S
C2209      F2223   1.382       .  S
C2209      F2224   1.383       .  S
C2211      F2219   1.384       .  S
C2211      F2220   1.384       .  S
C2211      F2221   1.383       .  S
C2225      C2226   1.400       .  A
C2225      C2230   1.413       .  A
C2225      H2235   1.083       .  S
C2226      C2231   1.495       .  S
C2226      C2227   1.413       .  A
C2227      C2228   1.413       .  A
C2227      C2232   1.520       .  S
C2228      C2229   1.414       .  A
C2228      H2233   1.082       .  S
C2229      C2230   1.431       .  A
C2230      C2234   1.521       .  S
C2231      C2236   1.417       .  A
C2231      C2240   1.405       .  A
C2232      F2248   1.382       .  S
C2232      F2249   1.382       .  S
C2232      F2250   1.384       .  S
C2234      F2245   1.383       .  S
C2234      F2246   1.385       .  S
C2234      F2247   1.383       .  S
C2236      C2237   1.408       .  A
C2236      C2241   1.520       .  S
C2237      C2238   1.407       .  A
C2237      H2242   1.082       .  S
C2238      C2239   1.421       .  A
C2239      C2240   1.413       .  A
C2239      C2243   1.519       .  S
C2240      H2244   1.083       .  S
C2241      F2254   1.385       .  S
C2241      F2255   1.382       .  S
C2241      F2256   1.382       .  S
C2243      F2251   1.384       .  S
C2243      F2252   1.384       .  S
C2243      F2253   1.383       .  S
C2257      C2258   1.404       .  A
C2257      C2262   1.410       .  A
C2257      H2267   1.082       .  S
C2258      C2263   1.487   1_655  S
C2258      C2259   1.418       .  A
C2259      C2260   1.407       .  A
C2259      C2264   1.520       .  S
C2260      C2261   1.401       .  A
C2260      H2265   1.083       .  S
C2261      C2262   1.414       .  A
C2262      C2266   1.516       .  S
C2263      C2268   1.415       .  A
C2263      C2272   1.405       .  A
C2264      F2280   1.382       .  S
C2264      F2281   1.383   1_655  S
C2264      F2282   1.385       .  S
C2266      F2277   1.383       .  S
C2266      F2278   1.384       .  S
C2266      F2279   1.384       .  S
C2268      C2269   1.403       .  A
C2268      C2273   1.521       .  S
C2269      C2270   1.404       .  A
C2269      H2274   1.083       .  S
C2270      C2271   1.418       .  A
C2271      C2272   1.414       .  A
C2271      C2275   1.515       .  S
C2272      H2276   1.083       .  S
C2273      F2286   1.385       .  S
C2273      F2287   1.383   1_455  S
C2273      F2288   1.382   1_455  S
C2275      F2283   1.385       .  S
C2275      F2284   1.383       .  S
C2275      F2285   1.383       .  S
C2289      C2290   1.399       .  A
C2289      C2294   1.408       .  A
C2289      H2299   1.083       .  S
C2290      C2295   1.479       .  S
C2290      C2291   1.416       .  A
C2291      C2292   1.403       .  A
C2291      C2296   1.523       .  S
C2292      C2293   1.406       .  A
C2292      H2297   1.083       .  S
C2293      C2294   1.423       .  A
C2294      C2298   1.519       .  S
C2295      C2300   1.414       .  A
C2295      C2304   1.399       .  A
C2296      F2312   1.382       .  S
C2296      F2313   1.382       .  S
C2296      F2314   1.384       .  S
C2298      F2309   1.384       .  S
C2298      F2310   1.383       .  S
C2298      F2311   1.383       .  S
C2300      C2301   1.409       .  A
C2300      C2305   1.518       .  S
C2301      C2302   1.403       .  A
C2301      H2306   1.083       .  S
C2302      C2303   1.416       .  A
C2303      C2304   1.401       .  A
C2303      C2307   1.516       .  S
C2304      H2308   1.084       .  S
C2305      F2318   1.384       .  S
C2305      F2319   1.383       .  S
C2305      F2320   1.383       .  S
C2307      F2315   1.384       .  S
C2307      F2316   1.383       .  S
C2307      F2317   1.379       .  S
C2321      C2322   1.398       .  A
C2321      C2326   1.407       .  A
C2321      H2331   1.083       .  S
C2322      C2327   1.486       .  S
C2322      C2323   1.410       .  A
C2323      C2324   1.410       .  A
C2323      C2328   1.518       .  S
C2324      C2325   1.413       .  A
C2324      H2329   1.082       .  S
C2325      C2326   1.429       .  A
C2326      C2330   1.522       .  S
C2327      C2332   1.416       .  A
C2327      C2336   1.404       .  A
C2328      F2344   1.383       .  S
C2328      F2345   1.382       .  S
C2328      F2346   1.384       .  S
C2330      F2341   1.383       .  S
C2330      F2342   1.385       .  S
C2330      F2343   1.383       .  S
C2332      C2333   1.403       .  A
C2332      C2337   1.522       .  S
C2333      C2334   1.404       .  A
C2333      H2338   1.084       .  S
C2334      C2335   1.420       .  A
C2335      C2336   1.412       .  A
C2335      C2339   1.518       .  S
C2336      H2340   1.083       .  S
C2337      F2350   1.385       .  S
C2337      F2351   1.382       .  S
C2337      F2352   1.382       .  S
C2339      F2347   1.383       .  S
C2339      F2348   1.383       .  S
C2339      F2349   1.385       .  S
C2353      C2354   1.403       .  A
C2353      C2358   1.407       .  A
C2353      H2363   1.083       .  S
C2354      C2359   1.484       .  S
C2354      C2355   1.417       .  A
C2355      C2356   1.407       .  A
C2355      C2360   1.520       .  S
C2356      C2357   1.403       .  A
C2356      H2361   1.083       .  S
C2357      C2358   1.414       .  A
C2358      C2362   1.516       .  S
C2359      C2364   1.412       .  A
C2359      C2368   1.396       .  A
C2360      F2376   1.382       .  S
C2360      F2377   1.381       .  S
C2360      F2378   1.385       .  S
C2362      F2373   1.383       .  S
C2362      F2374   1.385       .  S
C2362      F2375   1.382       .  S
C2364      C2365   1.409       .  A
C2364      C2369   1.520       .  S
C2365      C2366   1.412       .  A
C2365      H2370   1.083       .  S
C2366      C2367   1.429       .  A
C2367      C2368   1.408       .  A
C2367      C2371   1.515       .  S
C2368      H2372   1.084       .  S
C2369      F2382   1.384       .  S
C2369      F2383   1.382       .  S
C2369      F2384   1.382       .  S
C2371      F2379   1.385       .  S
C2371      F2380   1.383       .  S
C2371      F2381   1.376       .  S
C2385      C2386   1.402   1_565  A
C2385      C2390   1.404       .  A
C2385      H2395   1.085   1_565  S
C2386      C2391   1.492       .  S
C2386      C2387   1.420   1_545  A
C2387      C2388   1.412       .  A
C2387      C2392   1.518       .  S
C2388      C2389   1.404       .  A
C2388      H2393   1.082       .  S
C2389      C2390   1.418       .  A
C2390      C2394   1.517       .  S
C2391      C2396   1.418       .  A
C2391      C2400   1.403       .  A
C2392      F2408   1.382   1_565  S
C2392      F2409   1.382   1_565  S
C2392      F2410   1.385       .  S
C2394      F2405   1.384       .  S
C2394      F2406   1.382       .  S
C2394      F2407   1.383       .  S
C2396      C2397   1.414       .  A
C2396      C2401   1.519       .  S
C2397      C2398   1.406       .  A
C2397      H2402   1.083       .  S
C2398      C2399   1.418       .  A
C2399      C2400   1.407       .  A
C2399      C2403   1.519       .  S
C2400      H2404   1.083       .  S
C2401      F2414   1.384       .  S
C2401      F2415   1.382       .  S
C2401      F2416   1.382       .  S
C2403      F2411   1.385       .  S
C2403      F2412   1.382       .  S
C2403      F2413   1.383       .  S
C2417      C2418   1.401       .  A
C2417      C2422   1.408       .  A
C2417      H2427   1.083       .  S
C2418      C2423   1.480       .  S
C2418      C2419   1.410       .  A
C2419      C2420   1.405       .  A
C2419      C2424   1.518       .  S
C2420      C2421   1.412       .  A
C2420      H2425   1.082       .  S
C2421      C2422   1.424       .  A
C2422      C2426   1.519       .  S
C2423      C2428   1.418       .  A
C2423      C2432   1.406       .  A
C2424      F2440   1.383       .  S
C2424      F2441   1.381       .  S
C2424      F2442   1.385       .  S
C2426      F2437   1.385       .  S
C2426      F2438   1.383       .  S
C2426      F2439   1.383       .  S
C2428      C2429   1.398       .  A
C2428      C2433   1.523       .  S
C2429      C2430   1.403       .  A
C2429      H2434   1.086       .  S
C2430      C2431   1.415       .  A
C2431      C2432   1.412       .  A
C2431      C2435   1.515       .  S
C2432      H2436   1.083       .  S
C2433      F2446   1.383       .  S
C2433      F2447   1.384       .  S
C2433      F2448   1.380       .  S
C2435      F2443   1.383       .  S
C2435      F2444   1.383       .  S
C2435      F2445   1.385       .  S
C2449      C2450   1.405       .  A
C2449      C2454   1.410       .  A
C2449      H2459   1.083       .  S
C2450      C2455   1.483       .  S
C2450      C2451   1.414       .  A
C2451      C2452   1.402       .  A
C2451      C2456   1.519       .  S
C2452      C2453   1.401       .  A
C2452      H2457   1.083       .  S
C2453      C2454   1.414       .  A
C2454      C2458   1.515       .  S
C2455      C2460   1.413       .  A
C2455      C2464   1.401       .  A
C2456      F2472   1.382       .  S
C2456      F2473   1.383       .  S
C2456      F2474   1.384       .  S
C2458      F2469   1.383       .  S
C2458      F2470   1.385       .  S
C2458      F2471   1.383       .  S
C2460      C2461   1.400       .  A
C2460      C2465   1.524       .  S
C2461      C2462   1.411       .  A
C2461      H2466   1.081       .  S
C2462      C2463   1.427       .  A
C2463      C2464   1.413       .  A
C2463      C2467   1.519       .  S
C2464      H2468   1.082       .  S
C2465      F2478   1.384       .  S
C2465      F2479   1.382       .  S
C2465      F2480   1.383       .  S
C2467      F2475   1.385       .  S
C2467      F2476   1.383       .  S
C2467      F2477   1.383       .  S
C2481      C2482   1.401       .  A
C2481      C2486   1.411       .  A
C2481      H2491   1.083       .  S
C2482      C2487   1.488       .  S
C2482      C2483   1.413       .  A
C2483      C2484   1.405       .  A
C2483      C2488   1.521       .  S
C2484      C2485   1.411       .  A
C2484      H2489   1.081       .  S
C2485      C2486   1.428       .  A
C2486      C2490   1.521       .  S
C2487      C2492   1.414       .  A
C2487      C2496   1.398       .  A
C2488      F2504   1.382       .  S
C2488      F2505   1.382       .  S
C2488      F2506   1.385       .  S
C2490      F2501   1.385       .  S
C2490      F2502   1.383       .  S
C2490      F2503   1.383       .  S
C2492      C2493   1.410       .  A
C2492      C2497   1.519       .  S
C2493      C2494   1.409       .  A
C2493      H2498   1.083       .  S
C2494      C2495   1.427       .  A
C2495      C2496   1.405       .  A
C2495      C2499   1.521       .  S
C2496      H2500   1.085       .  S
C2497      F2510   1.384       .  S
C2497      F2511   1.382       .  S
C2497      F2512   1.383       .  S
C2499      F2507   1.382       .  S
C2499      F2508   1.379       .  S
C2499      F2509   1.384       .  S
C2513      C2514   1.400       .  A
C2513      C2518   1.410       .  A
C2513      H2523   1.083       .  S
C2514      C2519   1.484   1_455  S
C2514      C2515   1.413       .  A
C2515      C2516   1.404       .  A
C2515      C2520   1.522       .  S
C2516      C2517   1.411       .  A
C2516      H2521   1.083       .  S
C2517      C2518   1.424       .  A
C2518      C2522   1.518       .  S
C2519      C2524   1.417       .  A
C2519      C2528   1.405       .  A
C2520      F2536   1.382       .  S
C2520      F2537   1.383       .  S
C2520      F2538   1.385       .  S
C2522      F2533   1.382       .  S
C2522      F2534   1.384       .  S
C2522      F2535   1.383       .  S
C2524      C2525   1.401       .  A
C2524      C2529   1.521   1_655  S
C2525      C2526   1.400       .  A
C2525      H2530   1.084       .  S
C2526      C2527   1.413       .  A
C2527      C2528   1.411       .  A
C2527      C2531   1.515       .  S
C2528      H2532   1.083       .  S
C2529      F2542   1.385   1_455  S
C2529      F2543   1.382       .  S
C2529      F2544   1.382       .  S
C2531      F2539   1.384       .  S
C2531      F2540   1.383       .  S
C2531      F2541   1.383       .  S
C2545      C2546   1.401       .  A
C2545      C2550   1.400       .  A
C2545      H2555   1.085       .  S
C2546      C2551   1.477       .  S
C2546      C2547   1.418       .  A
C2547      C2548   1.405       .  A
C2547      C2552   1.518       .  S
C2548      C2549   1.402       .  A
C2548      H2553   1.085       .  S
C2549      C2550   1.413       .  A
C2550      C2554   1.515       .  S
C2551      C2556   1.412       .  A
C2551      C2560   1.398       .  A
C2552      F2568   1.383       .  S
C2552      F2569   1.382       .  S
C2552      F2570   1.384       .  S
C2554      F2565   1.384       .  S
C2554      F2566   1.382       .  S
C2554      F2567   1.383       .  S
C2556      C2557   1.409       .  A
C2556      C2561   1.516       .  S
C2557      C2558   1.406       .  A
C2557      H2562   1.083       .  S
C2558      C2559   1.423       .  A
C2559      C2560   1.401       .  A
C2559      C2563   1.523       .  S
C2560      H2564   1.083       .  S
C2561      F2574   1.384       .  S
C2561      F2575   1.382       .  S
C2561      F2576   1.383       .  S
C2563      F2571   1.385       .  S
C2563      F2572   1.384       .  S
C2563      F2573   1.383       .  S
C2577      C2578   1.402       .  A
C2577      C2582   1.406       .  A
C2577      H2587   1.083       .  S
C2578      C2583   1.479       .  S
C2578      C2579   1.418       .  A
C2579      C2580   1.405       .  A
C2579      C2584   1.523       .  S
C2580      C2581   1.402       .  A
C2580      H2585   1.084       .  S
C2581      C2582   1.412       .  A
C2582      C2586   1.514       .  S
C2583      C2588   1.411       .  A
C2583      C2592   1.399       .  A
C2584      F2600   1.382       .  S
C2584      F2601   1.381       .  S
C2584      F2602   1.385       .  S
C2586      F2597   1.384       .  S
C2586      F2598   1.382       .  S
C2586      F2599   1.383       .  S
C2588      C2589   1.409       .  A
C2588      C2593   1.517       .  S
C2589      C2590   1.409       .  A
C2589      H2594   1.083       .  S
C2590      C2591   1.423       .  A
C2591      C2592   1.400       .  A
C2591      C2595   1.524       .  S
C2592      H2596   1.083       .  S
C2593      F2606   1.384       .  S
C2593      F2607   1.382       .  S
C2593      F2608   1.382       .  S
C2595      F2603   1.381       .  S
C2595      F2604   1.383       .  S
C2595      F2605   1.385       .  S
C2609      C2610   1.403       .  A
C2609      C2614   1.413       .  A
C2609      H2619   1.083       .  S
C2610      C2615   1.481       .  S
C2610      C2611   1.412       .  A
C2611      C2612   1.399       .  A
C2611      C2616   1.524       .  S
C2612      C2613   1.412       .  A
C2612      H2617   1.081       .  S
C2613      C2614   1.422       .  A
C2614      C2618   1.516       .  S
C2615      C2620   1.415       .  A
C2615      C2624   1.405       .  A
C2616      F2632   1.382       .  S
C2616      F2633   1.382       .  S
C2616      F2634   1.385       .  S
C2618      F2629   1.381       .  S
C2618      F2630   1.385       .  S
C2618      F2631   1.382       .  S
C2620      C2621   1.400       .  A
C2620      C2625   1.521       .  S
C2621      C2622   1.402       .  A
C2621      H2626   1.084       .  S
C2622      C2623   1.415       .  A
C2623      C2624   1.411       .  A
C2623      C2627   1.517       .  S
C2624      H2628   1.083       .  S
C2625      F2638   1.385       .  S
C2625      F2639   1.382       .  S
C2625      F2640   1.382       .  S
C2627      F2635   1.383       .  S
C2627      F2636   1.383       .  S
C2627      F2637   1.384       .  S
C2641      C2642   1.405       .  A
C2641      C2646   1.412       .  A
C2641      H2651   1.083       .  S
C2642      C2647   1.493       .  S
C2642      C2643   1.419       .  A
C2643      C2644   1.408       .  A
C2643      C2648   1.519       .  S
C2644      C2645   1.401       .  A
C2644      H2649   1.083       .  S
C2645      C2646   1.415       .  A
C2646      C2650   1.516       .  S
C2647      C2652   1.415       .  A
C2647      C2656   1.401       .  A
C2648      F2664   1.382       .  S
C2648      F2665   1.383       .  S
C2648      F2666   1.385       .  S
C2650      F2661   1.385       .  S
C2650      F2662   1.383       .  S
C2650      F2663   1.383       .  S
C2652      C2653   1.409       .  A
C2652      C2657   1.519       .  S
C2653      C2654   1.409       .  A
C2653      H2658   1.082       .  S
C2654      C2655   1.428       .  A
C2655      C2656   1.411       .  A
C2655      C2659   1.521       .  S
C2656      H2660   1.083       .  S
C2657      F2670   1.385       .  S
C2657      F2671   1.382       .  S
C2657      F2672   1.383       .  S
C2659      F2667   1.385       .  S
C2659      F2668   1.383       .  S
C2659      F2669   1.384       .  S
C2673      C2674   1.405       .  A
C2673      C2678   1.417       .  A
C2673      H2683   1.082       .  S
C2674      C2679   1.493       .  S
C2674      C2675   1.415       .  A
C2675      C2676   1.403       .  A
C2675      C2680   1.523       .  S
C2676      C2677   1.409       .  A
C2676      H2681   1.082       .  S
C2677      C2678   1.422       .  A
C2678      C2682   1.514       .  S
C2679      C2684   1.415       .  A
C2679      C2688   1.404       .  A
C2680      F2696   1.382       .  S
C2680      F2697   1.383       .  S
C2680      F2698   1.384       .  S
C2682      F2693   1.384       .  S
C2682      F2694   1.385       .  S
C2682      F2695   1.380       .  S
C2684      C2685   1.406       .  A
C2684      C2689   1.521       .  S
C2685      C2686   1.408       .  A
C2685      H2690   1.083       .  S
C2686      C2687   1.424       .  A
C2687      C2688   1.414       .  A
C2687      C2691   1.519       .  S
C2688      H2692   1.083       .  S
C2689      F2702   1.384       .  S
C2689      F2703   1.382       .  S
C2689      F2704   1.383       .  S
C2691      F2699   1.385       .  S
C2691      F2700   1.383       .  S
C2691      F2701   1.384       .  S
C2705      C2706   1.401       .  A
C2705      C2710   1.405       .  A
C2705      H2715   1.083       .  S
C2706      C2711   1.488       .  S
C2706      C2707   1.416       .  A
C2707      C2708   1.413       .  A
C2707      C2712   1.518       .  S
C2708      C2709   1.405       .  A
C2708      H2713   1.082       .  S
C2709      C2710   1.418       .  A
C2710      C2714   1.518       .  S
C2711      C2716   1.415       .  A
C2711      C2720   1.403       .  A
C2712      F2728   1.382       .  S
C2712      F2729   1.382       .  S
C2712      F2730   1.385       .  S
C2714      F2725   1.385       .  S
C2714      F2726   1.383       .  S
C2714      F2727   1.381       .  S
C2716      C2717   1.403       .  A
C2716      C2721   1.524       .  S
C2717      C2718   1.410       .  A
C2717      H2722   1.082       .  S
C2718      C2719   1.422       .  A
C2719      C2720   1.414       .  A
C2719      C2723   1.516       .  S
C2720      H2724   1.084       .  S
C2721      F2734   1.385       .  S
C2721      F2735   1.382       .  S
C2721      F2736   1.382       .  S
C2723      F2731   1.382       .  S
C2723      F2732   1.383       .  S
C2723      F2733   1.385       .  S
C2737      C2738   1.400       .  A
C2737      C2742   1.402       .  A
C2737      H2747   1.084       .  S
C2738      C2743   1.481       .  S
C2738      C2739   1.415       .  A
C2739      C2740   1.408       .  A
C2739      C2744   1.517       .  S
C2740      C2741   1.403       .  A
C2740      H2745   1.084       .  S
C2741      C2742   1.415       .  A
C2742      C2746   1.518       .  S
C2743      C2748   1.416       .  A
C2743      C2752   1.405       .  A
C2744      F2760   1.382       .  S
C2744      F2761   1.382       .  S
C2744      F2762   1.385       .  S
C2746      F2757   1.385       .  S
C2746      F2758   1.382       .  S
C2746      F2759   1.383       .  S
C2748      C2749   1.398       .  A
C2748      C2753   1.526       .  S
C2749      C2750   1.407       .  A
C2749      H2754   1.083       .  S
C2750      C2751   1.420       .  A
C2751      C2752   1.415       .  A
C2751      C2755   1.517       .  S
C2752      H2756   1.083       .  S
C2753      F2766   1.385       .  S
C2753      F2767   1.382       .  S
C2753      F2768   1.381       .  S
C2755      F2763   1.385       .  S
C2755      F2764   1.383       .  S
C2755      F2765   1.383       .  S
C2769      C2770   1.405       .  A
C2769      C2774   1.414       .  A
C2769      H2779   1.083       .  S
C2770      C2775   1.486       .  S
C2770      C2771   1.416       .  A
C2771      C2772   1.402       .  A
C2771      C2776   1.523       .  S
C2772      C2773   1.405       .  A
C2772      H2777   1.084       .  S
C2773      C2774   1.418       .  A
C2774      C2778   1.516       .  S
C2775      C2780   1.415       .  A
C2775      C2784   1.402       .  A
C2776      F2792   1.382       .  S
C2776      F2793   1.381       .  S
C2776      F2794   1.384       .  S
C2778      F2789   1.385       .  S
C2778      F2790   1.383       .  S
C2778      F2791   1.383       .  S
C2780      C2781   1.410       .  A
C2780      C2785   1.518       .  S
C2781      C2782   1.405       .  A
C2781      H2786   1.084       .  S
C2782      C2783   1.417       .  A
C2783      C2784   1.406       .  A
C2783      C2787   1.518       .  S
C2784      H2788   1.084       .  S
C2785      F2798   1.385       .  S
C2785      F2799   1.382       .  S
C2785      F2800   1.381       .  S
C2787      F2795   1.385       .  S
C2787      F2796   1.382       .  S
C2787      F2797   1.382       .  S
C2801      C2802   1.404       .  A
C2801      C2806   1.408       .  A
C2801      H2811   1.082       .  S
C2802      C2807   1.484       .  S
C2802      C2803   1.420       .  A
C2803      C2804   1.398       .  A
C2803      C2808   1.524       .  S
C2804      C2805   1.399       .  A
C2804      H2809   1.084       .  S
C2805      C2806   1.416       .  A
C2806      C2810   1.519       .  S
C2807      C2812   1.415       .  A
C2807      C2816   1.400       .  A
C2808      F2824   1.381       .  S
C2808      F2825   1.383       .  S
C2808      F2826   1.385       .  S
C2810      F2821   1.385       .  S
C2810      F2822   1.382       .  S
C2810      F2823   1.384       .  S
C2812      C2813   1.401       .  A
C2812      C2817   1.523       .  S
C2813      C2814   1.409       .  A
C2813      H2818   1.083       .  S
C2814      C2815   1.424       .  A
C2815      C2816   1.408       .  A
C2815      C2819   1.519       .  S
C2816      H2820   1.083       .  S
C2817      F2830   1.384       .  S
C2817      F2831   1.381       .  S
C2817      F2832   1.383       .  S
C2819      F2827   1.385       .  S
C2819      F2828   1.382       .  S
C2819      F2829   1.383       .  S
