geometry optimzed in LAMMPS
_audit_creation_date              2020-12-01 
_audit_creation_method            'lammps2cif' 
_symmetry_space_group_name_H-M    'P1' 
_symmetry_Int_Tables_number       1 
_symmetry_cell_setting            triclinic 
loop_ 
_symmetry_equiv_pos_as_xyz 
  x,y,z 
_cell_length_a                    50.5718319 
_cell_length_b                    50.82931679350988 
_cell_length_c                    49.10226343833231 
_cell_angle_alpha                 90.16719681290976 
_cell_angle_beta                  89.88186339027763 
_cell_angle_gamma                 120.10159424141102 
loop_ 
_atom_site_label 
_atom_site_type_symbol 
_atom_site_fract_x 
_atom_site_fract_y 
_atom_site_fract_z 
_atom_site_charge 
Zn1        Zn  0.33115425  0.36093867  0.39548235     1.49700
Zn2        Zn  0.28961875  0.37939595  0.36233005     1.49400
Zn3        Zn  0.33418701  0.42520159  0.40957991     1.49100
Zn4        Zn  0.36034129  0.41449764  0.35353024     1.49500
O5          O  0.32867455  0.39529140  0.38070450    -1.84000
O6          O  0.28993465  0.32171284  0.39577071    -0.74600
O7          O  0.27091238  0.40403499  0.37394824    -0.74500
O8          O  0.34716208  0.41312659  0.44605354    -0.74000
O9          O  0.26093857  0.33573752  0.37304854    -0.74700
O10         O  0.34591053  0.37038751  0.43347474    -0.74300
O11         O  0.29536657  0.42954834  0.41134357    -0.74800
O12         O  0.38353599  0.45902682  0.35892656    -0.74200
O13         O  0.29331398  0.38316957  0.32115482    -0.75000
O14         O  0.36845812  0.46803869  0.39839643    -0.74400
O15         O  0.34371321  0.40912014  0.31594117    -0.74800
O16         O  0.39047899  0.40014954  0.35639610    -0.74800
O17         O  0.36524151  0.35652613  0.37894734    -0.74500
C18         C  0.26412484  0.31598219  0.38629374     0.77200
C19         C  0.27409396  0.42176751  0.39360471     0.77700
C20         C  0.35186207  0.39098820  0.45101386     0.76700
C21         C  0.38520168  0.47757704  0.37708395     0.77100
C22         C  0.31690585  0.39707055  0.30612694     0.78200
C23         C  0.38914517  0.37665662  0.36682949     0.77300
Zn24       Zn  0.38802159  0.30407118  0.64078977     1.49700
Zn25       Zn  0.42899697  0.34557518  0.59105247     1.49400
Zn26       Zn  0.36510676  0.34198142  0.60953160     1.49100
Zn27       Zn  0.42204312  0.37309350  0.64876971     1.49500
O28         O  0.40149568  0.34156308  0.62194663    -1.84000
O29         O  0.41490734  0.28873328  0.63045183    -0.74600
O30         O  0.41350367  0.35626131  0.55492145    -0.74500
O31         O  0.32704227  0.29938873  0.60939816    -0.74000
O32         O  0.43539424  0.30778906  0.59008550    -0.74700
O33         O  0.34672293  0.27293346  0.62752878    -0.74300
O34         O  0.37168739  0.35456096  0.57108013    -0.74800
O35         O  0.40710623  0.40262633  0.64534441    -0.74200
O36         O  0.47195423  0.38063893  0.59984595    -0.75000
O37         O  0.36123448  0.37674344  0.62602164    -0.74400
O38         O  0.46679119  0.39547312  0.64107257    -0.74800
O39         O  0.41643034  0.35736354  0.68748240    -0.74800
O40         O  0.39067308  0.30726949  0.68197823    -0.74500
C41         C  0.43087066  0.28979870  0.61010069     0.77200
C42         C  0.39030817  0.35992393  0.55168456     0.77700
C43         C  0.32510812  0.27403224  0.61538839     0.76700
C44         C  0.38275955  0.40117060  0.63644340     0.77100
C45         C  0.48353034  0.39705991  0.62109185     0.78200
C46         C  0.40386268  0.33060203  0.69728037     0.77300
Zn47       Zn  0.12777062  0.45973244  0.36548466     1.49700
Zn48       Zn  0.07052212  0.44487271  0.40292775     1.49400
Zn49       Zn  0.06652364  0.39413381  0.36587334     1.49100
Zn50       Zn  0.11011266  0.41606110  0.41809358     1.49500
O51         O  0.09435816  0.42855818  0.38761078    -1.84000
O52         O  0.13074506  0.99961035  0.37223651    -0.74600
O53         O  0.02510818  0.41765280  0.39901041    -0.74500
O54         O  0.08075269  0.40013866  0.32741572    -0.74000
O55         O  0.08115306  0.48355545  0.38508929    -0.74700
O56         O  0.11934087  0.44778739  0.32474076    -0.74300
O57         O  0.02382966  0.38787457  0.36528559    -0.74800
O58         O  0.08796722  0.36907105  0.42052986    -0.74200
O59         O  0.08362713  0.45979277  0.44073709    -0.75000
O60         O  0.06438093  0.35638324  0.38024437    -0.74400
O61         O  0.11398288  0.44187298  0.45205039    -0.74800
O62         O  0.15320050  0.42754342  0.40992828    -0.74800
O63         O  0.16786969  0.46005971  0.37532242    -0.74500
C64         C  0.11019612  0.00544392  0.38046103     0.77200
C65         C  0.01051051  0.39775800  0.38074587     0.77700
C66         C  0.10065035  0.42236408  0.31350517     0.76700
C67         C  0.07302510  0.34929589  0.40197190     0.77100
C68         C  0.10298503  0.45926048  0.45683652     0.78200
C69         C  0.17343448  0.44491339  0.39295949     0.77300
Zn70       Zn  0.12540243  0.05824092  0.60051049     1.49700
Zn71       Zn  0.17013770  0.04541813  0.63653538     1.49400
Zn72       Zn  0.19338611  0.08910933  0.58417078     1.49100
Zn73       Zn  0.17081911  0.10900779  0.63751805     1.49500
O74         O  0.16579763  0.07558914  0.61515688    -1.84000
O75         O  0.10148404  0.52295676  0.61049297    -0.74600
O76         O  0.20947534  0.04500409  0.62447890    -0.74500
O77         O  0.17168012  0.06407595  0.54971064    -0.74000
O78         O  0.13206439  0.50775897  0.62877564    -0.74700
O79         O  0.12346683  0.04231174  0.56314295    -0.74300
O80         O  0.22599046  0.07888236  0.59107682    -0.74800
O81         O  0.20640114  0.14683409  0.62384497    -0.74200
O82         O  0.17501460  0.05784145  0.67692027    -0.75000
O83         O  0.21642898  0.13581599  0.58238674    -0.74400
O84         O  0.17744750  0.10262994  0.67648051    -0.74800
O85         O  0.13489344  0.11588296  0.63615738    -0.74800
O86         O  0.10693058  0.08529765  0.60271054    -0.74500
C87         C  0.10601701  0.50224974  0.61983521     0.77200
C88         C  0.22966779  0.06097255  0.60654641     0.77700
C89         C  0.14332145  0.04509697  0.54577714     0.76700
C90         C  0.22111253  0.15489731  0.60152140     0.77100
C91         C  0.17788754  0.08121841  0.68947047     0.78200
C92         C  0.11219311  0.10600606  0.62007817     0.77300
Zn93       Zn  0.08610394  0.15783690  0.41376016     1.49700
Zn94       Zn  0.05158590  0.12736143  0.35774478     1.49400
Zn95       Zn  0.02628237  0.16096419  0.39378049     1.49100
Zn96       Zn  0.08833432  0.19723778  0.36247513     1.49500
O97         O  0.06301307  0.16053676  0.38245445    -1.84000
O98         O  0.09598287  0.12385759  0.40667594    -0.74600
O99         O  0.00672279  0.09831475  0.36078205    -0.74500
O100        O  0.01941571  0.14956034  0.43260523    -0.74000
O101        O  0.07397668  0.10564142  0.36671007    -0.74700
O102        O  0.05934700  0.14778721  0.44905844    -0.74300
O103        O  0.48752660  0.12745393  0.38182678    -0.74800
O104        O  0.07937259  0.22978537  0.37488958    -0.74200
O105        O  0.06250446  0.14127839  0.31916765    -0.75000
O106        O  0.03247282  0.20418497  0.39231050    -0.74400
O107        O  0.08592408  0.19153789  0.32130940    -0.74800
O108        O  0.13140652  0.21220449  0.37243667    -0.74800
O109        O  0.12898884  0.19668670  0.41521281    -0.74500
C110        C  0.09042318  0.10601088  0.38642778     0.77200
C111        C  0.48388168  0.10263619  0.37187940     0.77700
C112        C  0.03263069  0.14450833  0.45215126     0.76700
C113        C  0.05644846  0.22931985  0.38624055     0.77100
C114        C  0.07613164  0.16710231  0.30753286     0.78200
C115        C  0.14428878  0.21309476  0.39488627     0.77300
Zn116      Zn  0.44635803  0.09017974  0.65242735     1.49700
Zn117      Zn  0.47013407  0.14338963  0.61030539     1.49400
Zn118      Zn  0.41043598  0.07871769  0.59537605     1.49100
Zn119      Zn  0.40831756  0.12232326  0.64286756     1.49500
O120        O  0.43330757  0.10836233  0.62483338    -1.84000
O121        O  0.49097629  0.10486829  0.64877259    -0.74600
O122        O  0.47667893  0.13519394  0.57236840    -0.74500
O123        O  0.40200665  0.03645861  0.60732265    -0.74000
O124        O  0.00951956  0.14983587  0.62289154    -0.74700
O125        O  0.42471235  0.04529250  0.64755009    -0.74300
O126        O  0.43686812  0.09120001  0.55942838    -0.74800
O127        O  0.36559728  0.09845300  0.62881091    -0.74200
O128        O  0.46746717  0.18183370  0.61040487    -0.75000
O129        O  0.36707230  0.07365132  0.59180867    -0.74400
O130        O  0.42477018  0.16693019  0.63430373    -0.74800
O131        O  0.40527475  0.11553499  0.68384936    -0.74800
O132        O  0.43660541  0.09737414  0.69037769    -0.74500
C133        C  0.01380285  0.12957214  0.63379708     0.77200
C134        C  0.46335225  0.11436971  0.55473555     0.77700
C135        C  0.40838003  0.02685645  0.62898395     0.76700
C136        C  0.35240304  0.08098634  0.60863989     0.77100
C137        C  0.44764027  0.18720157  0.62100116     0.78200
C138        C  0.41851084  0.10583641  0.69954461     0.77300
Zn139      Zn  0.07533067  0.12397900  0.14162528     1.49700
Zn140      Zn  0.06579975  0.15137312  0.08611517     1.49400
Zn141      Zn  0.10875172  0.19394931  0.13492474     1.49100
Zn142      Zn  0.13044931  0.15511777  0.10180045     1.49500
O143        O  0.09474755  0.15613037  0.11556470    -1.84000
O144        O  0.03053692  0.10108968  0.13602612    -0.74600
O145        O  0.06214187  0.19048430  0.08439429    -0.74500
O146        O  0.10644533  0.18950811  0.17637307    -0.74000
O147        O  0.02306761  0.11779880  0.09675588    -0.74700
O148        O  0.08201465  0.13934712  0.17963446    -0.74300
O149        O  0.08378644  0.21218080  0.12403789    -0.74800
O150        O  0.16867373  0.19715847  0.10112921    -0.74200
O151        O  0.07823890  0.13812513  0.04976640    -0.75000
O152        O  0.15079664  0.22408736  0.12183310    -0.74400
O153        O  0.12189490  0.14213115  0.06367476    -0.74800
O154        O  0.13562109  0.12092524  0.11751804    -0.74800
O155        O  0.09054789  0.09488850  0.13806293    -0.74500
C156        C  0.01274749  0.10036895  0.11744507     0.77200
C157        C  0.06865840  0.21071926  0.10289614     0.77700
C158        C  0.09414195  0.16539859  0.19078102     0.76700
C159        C  0.17168364  0.22257542  0.10862942     0.77100
C160        C  0.10184352  0.13548158  0.04537736     0.78200
C161        C  0.11499461  0.09678507  0.12896253     0.77300
Zn162      Zn  0.16882250  0.11927893  0.85990489     1.49700
Zn163      Zn  0.16687302  0.05531109  0.86014641     1.49400
Zn164      Zn  0.18567657  0.09438112  0.91363117     1.49100
Zn165      Zn  0.11819007  0.06269414  0.89403047     1.49500
O166        O  0.16012482  0.08331445  0.88155874    -1.84000
O167        O  0.17423913  0.11174942  0.81952679    -0.74600
O168        O  0.20162893  0.05210224  0.87493929    -0.74500
O169        O  0.21996723  0.13701409  0.90916770    -0.74000
O170        O  0.17554814  0.06883319  0.82144045    -0.74700
O171        O  0.20864930  0.15606130  0.87340047    -0.74300
O172        O  0.20662886  0.06906758  0.91734991    -0.74800
O173        O  0.11406983  0.07174105  0.93352453    -0.74200
O174        O  0.13035901  0.01319535  0.85994779    -0.75000
O175        O  0.16240564  0.09609775  0.94676157    -0.74400
O176        O  0.09638714  0.01800104  0.88518103    -0.74800
O177        O  0.09609379  0.08064953  0.87618864    -0.74800
O178        O  0.13289125  0.12716270  0.86434594    -0.74500
C179        C  0.17697646  0.09074571  0.80777699     0.77200
C180        C  0.21399402  0.05674141  0.89831899     0.77700
C181        C  0.22647084  0.15899814  0.89309000     0.76700
C182        C  0.13435578  0.08761221  0.95112107     0.77100
C183        C  0.10405803  0.00204172  0.87072445     0.78200
C184        C  0.10498996  0.10806785  0.86991114     0.77300
Zn185      Zn  0.08650592  0.37665528  0.14301688     1.49700
Zn186      Zn  0.05293907  0.41324176  0.14852254     1.49400
Zn187      Zn  0.08574029  0.41607635  0.09141774     1.49100
Zn188      Zn  0.02506972  0.35398572  0.11169214     1.49500
O189        O  0.06276578  0.39033372  0.12315844    -1.84000
O190        O  0.08768427  0.38334910  0.18421949    -0.74600
O191        O  0.07420415  0.45658346  0.13792657    -0.74500
O192        O  0.12841954  0.41924101  0.08962293    -0.74000
O193        O  0.06740022  0.41317389  0.18657667    -0.74700
O194        O  0.12941833  0.40100340  0.13061788    -0.74300
O195        O  0.09576156  0.46021821  0.09781557    -0.74800
O196        O  0.01823219  0.35837091  0.07270770    -0.74200
O197        O  0.00801551  0.39853490  0.14725617    -0.75000
O198        O  0.05842224  0.39991625  0.05631800    -0.74400
O199        O  0.48775529  0.35146684  0.12536244    -0.74800
O200        O  0.02742273  0.31486390  0.11340844    -0.74800
O201        O  0.07340345  0.33354550  0.13206908    -0.74500
C202        C  0.08095510  0.40066036  0.19777267     0.77200
C203        C  0.08997670  0.47253584  0.11790829     0.77700
C204        C  0.14287896  0.41487641  0.10891451     0.76700
C205        C  0.03167316  0.37659975  0.05322170     0.77100
C206        C  0.48318479  0.37169002  0.13607956     0.78200
C207        C  0.05016559  0.31196733  0.12025311     0.77300
Zn208      Zn  0.38939055  0.32514719  0.86896265     1.49700
Zn209      Zn  0.40968948  0.30149302  0.92012827     1.49400
Zn210      Zn  0.45183634  0.32351332  0.86519342     1.49100
Zn211      Zn  0.44454781  0.36928834  0.90511883     1.49500
O212        O  0.42398562  0.32934321  0.88942054    -1.84000
O213        O  0.35188537  0.28702660  0.87998793    -0.74600
O214        O  0.42337460  0.27202195  0.91383286    -0.74500
O215        O  0.43851651  0.32120490  0.82489488    -0.74000
O216        O  0.36274062  0.27523282  0.92046145    -0.74700
O217        O  0.39594315  0.32337507  0.82902208    -0.74300
O218        O  0.45229485  0.28487844  0.87673622    -0.74800
O219        O  0.48451997  0.39382618  0.88798350    -0.74200
O220        O  0.43232896  0.32174426  0.95570360    -0.75000
O221        O  0.99981138  0.35939879  0.86676253    -0.74400
O222        O  0.45768167  0.37001982  0.94331853    -0.74800
O223        O  0.42052150  0.39026420  0.90188235    -0.74800
O224        O  0.38190522  0.36017258  0.87480682    -0.74500
C225        C  0.34379856  0.27037422  0.90114112     0.77200
C226        C  0.43973067  0.26730745  0.89712736     0.77700
C227        C  0.41587775  0.32202850  0.81416044     0.76700
C228        C  0.00894880  0.38617583  0.87580781     0.77100
C229        C  0.45247510  0.34942641  0.96048779     0.78200
C230        C  0.39659544  0.38447357  0.88865163     0.77300
Zn231      Zn  0.30268093  0.40956231  0.08490565     1.49700
Zn232      Zn  0.37065238  0.43880890  0.10297249     1.49400
Zn233      Zn  0.32573425  0.45028343  0.13912391     1.49100
Zn234      Zn  0.32197398  0.38552724  0.13704328     1.49500
O235        O  0.32956139  0.42081331  0.11636194    -1.84000
O236        O  0.32578736  0.43626888  0.05193296    -0.74600
O237        O  0.39746957  0.47661415  0.12347891    -0.74500
O238        O  0.28635217  0.45050767  0.12871517    -0.74000
O239        O  0.37364716  0.45511097  0.06551854    -0.74700
O240        O  0.27004920  0.41956821  0.09295180    -0.74300
O241        O  0.36524953  0.99048142  0.12981961    -0.74800
O242        O  0.31248279  0.38925295  0.17585115    -0.74200
O243        O  0.38848717  0.41130753  0.10583418    -0.75000
O244        O  0.32136803  0.43670043  0.17895126    -0.74400
O245        O  0.35806416  0.37900302  0.13736532    -0.74800
O246        O  0.28752364  0.34869632  0.12037395    -0.74800
O247        O  0.27931252  0.36314937  0.07989826    -0.74500
C248        C  0.35445173  0.45405589  0.04830038     0.77200
C249        C  0.39212113  0.99536665  0.12472139     0.77700
C250        C  0.26624136  0.43594032  0.11037402     0.76700
C251        C  0.31487001  0.41136790  0.18995332     0.77100
C252        C  0.38194368  0.38986232  0.12264595     0.78200
C253        C  0.27368248  0.34251756  0.09760626     0.77300
Zn254      Zn  0.38899918  0.08333796  0.91919018     1.49700
Zn255      Zn  0.37203475  0.04215195  0.86478692     1.49400
Zn256      Zn  0.43513249  0.10529974  0.86836628     1.49100
Zn257      Zn  0.42809602  0.05463246  0.90480819     1.49500
O258        O  0.40513071  0.07118075  0.88887539    -1.84000
O259        O  0.34557958  0.07060463  0.91140441    -0.74600
O260        O  0.37955389  0.05858229  0.82525552    -0.74500
O261        O  0.43929751  0.14287961  0.88367295    -0.74000
O262        O  0.33103505  0.03670960  0.87797462    -0.74700
O263        O  0.41234047  0.12992458  0.92210848    -0.74300
O264        O  0.42261357  0.10249262  0.83010700    -0.74800
O265        O  0.47395137  0.08038412  0.90189077    -0.74200
O266        O  0.37218620  0.49932954  0.87407367    -0.75000
O267        O  0.47687602  0.10980859  0.86759385    -0.74400
O268        O  0.41757109  0.51391636  0.89301832    -0.74800
O269        O  0.41427855  0.03923342  0.94228182    -0.74800
O270        O  0.38495577  0.05847031  0.95354563    -0.74500
C271        C  0.32480674  0.05104727  0.89594293     0.77200
C272        C  0.40113002  0.08323649  0.81515522     0.77700
C273        C  0.42990952  0.15006755  0.90487398     0.76700
C274        C  0.48934658  0.09948546  0.88336875     0.77100
C275        C  0.39190371  0.49331444  0.88391888     0.78200
C276        C  0.39554512  0.04084420  0.95846467     0.77300
C277        C  0.34675293  0.48622747  0.01431086    -0.26200
C278        C  0.36589472  0.47619155  0.02520851    -0.14300
C279        C  0.39653483  0.49007925  0.01573451     0.36300
C280        C  0.40507808  0.01253126  0.99455926    -0.25700
C281        C  0.38459972  0.01967027  0.98203319    -0.14900
C282        C  0.35331538  0.00277898  0.98912417     0.37400
N283        N  0.33144758  0.00836387  0.97552011    -0.89100
H284        H  0.32339335  0.47611283  0.02147733     0.18500
H285        H  0.42899769  0.02476010  0.98878123     0.18500
N286        N  0.41752043  0.48078009  0.02478125    -0.88200
H287        H  0.30947672  0.99420048  0.98321660     0.35900
H288        H  0.33087164  0.00239350  0.95503521     0.41000
H289        H  0.40745081  0.45725391  0.02220967     0.40600
H290        H  0.42265062  0.48646488  0.04529635     0.35500
C291        C  0.37509701  0.44187361  0.86435476    -0.26200
C292        C  0.38526543  0.46180115  0.88665128    -0.14300
C293        C  0.39290398  0.45283567  0.91116499     0.36300
C294        C  0.39382526  0.42590476  0.91203855    -0.25700
C295        C  0.38709102  0.40753837  0.88885041    -0.14900
C296        C  0.37598978  0.41466146  0.86526593     0.37400
N297        N  0.36770360  0.39555300  0.84165460    -0.89100
H298        H  0.36864019  0.44841551  0.84563438     0.18500
H299        H  0.40144858  0.42018037  0.93056030     0.18500
N300        N  0.40073149  0.47164451  0.93500806    -0.88200
H301        H  0.38153870  0.40847858  0.82546385     0.35900
H302        H  0.34505310  0.38879376  0.83677676     0.41000
H303        H  0.42286563  0.47746222  0.94092624     0.40600
H304        H  0.38576711  0.45883836  0.95065980     0.35500
C305        C  0.45814941  0.20368612  0.88837618    -0.26200
C306        C  0.43799022  0.18237780  0.90756841    -0.14300
C307        C  0.42282065  0.19148913  0.92602832     0.36300
C308        C  0.42524971  0.21996982  0.92303160    -0.25700
C309        C  0.44264643  0.23996652  0.90188218    -0.14900
C310        C  0.46083676  0.23244953  0.88546693     0.37400
N311        N  0.98271579  0.25290437  0.86871099    -0.89100
H312        H  0.47095022  0.19746129  0.87468409     0.18500
H313        H  0.41210974  0.22570209  0.93678085     0.18500
N314        N  0.40377739  0.17151080  0.94711557    -0.88200
H315        H  0.99498043  0.24386139  0.85928271     0.35900
H316        H  0.99841579  0.27119045  0.88058907     0.41000
H317        H  0.38164590  0.16776815  0.94441040     0.40600
H318        H  0.41195402  0.18250630  0.96581439     0.35500
C319        C  0.47883956  0.33569922  0.99570322    -0.26200
C320        C  0.47287867  0.35767282  0.98475382    -0.14300
C321        C  0.49014390  0.38798798  0.99442374     0.36300
C322        C  0.01123935  0.39430397  0.01547258    -0.25700
C323        C  0.01398147  0.37072461  0.02743512    -0.14900
C324        C  0.99574138  0.34081102  0.01701245     0.37400
N325        N  0.99822997  0.31569423  0.02708536    -0.89100
H326        H  0.46696428  0.31266427  0.98781214     0.18500
H327        H  0.02445504  0.41719624  0.02350512     0.18500
N328        N  0.48522957  0.41133081  0.98361064    -0.88200
H329        H  0.49958257  0.31445991  0.04579989     0.35900
H330        H  0.02116201  0.32140538  0.02619588     0.41000
H331        H  0.50595813  0.42843661  0.97564879     0.40600
H332        H  0.98218326  0.42323780  0.99852513     0.35500
C333        C  0.41353280  0.37758376  0.15266215    -0.26200
C334        C  0.40350314  0.37866991  0.12625391    -0.14300
C335        C  0.41668224  0.37236677  0.10367659     0.36300
C336        C  0.44092269  0.36683206  0.10788435    -0.25700
C337        C  0.45274432  0.36851543  0.13408211    -0.14900
C338        C  0.43856029  0.37326580  0.15666804     0.37400
N339        N  0.45019411  0.37473551  0.18352913    -0.89100
H340        H  0.40337880  0.38230629  0.17009858     0.18500
H341        H  0.45215395  0.36351546  0.09046459     0.18500
N342        N  0.40612252  0.37270337  0.07658616    -0.88200
H343        H  0.43255334  0.35809165  0.19536511     0.35900
H344        H  0.45621433  0.39597865  0.19184106     0.41000
H345        H  0.38346084  0.35498794  0.07523662     0.40600
H346        H  0.41854773  0.36807765  0.06221850     0.35500
C347        C  0.19340055  0.43562786  0.13129967    -0.26200
C348        C  0.17610638  0.42558514  0.10717959    -0.14300
C349        C  0.18995825  0.42253990  0.08339643     0.36300
C350        C  0.22025245  0.42821568  0.08464790    -0.25700
C351        C  0.23694485  0.43638717  0.10927263    -0.14900
C352        C  0.22332151  0.44092098  0.13268352     0.37400
N353        N  0.23842091  0.44921548  0.15855086    -0.89100
H354        H  0.18305797  0.43821288  0.14972530     0.18500
H355        H  0.23039083  0.42485851  0.06646956     0.18500
N356        N  0.17283958  0.41216982  0.05848795    -0.88200
H357        H  0.25843619  0.47023894  0.15666292     0.35900
H358        H  0.24389920  0.43272610  0.16433695     0.50600
H359        H  0.15515455  0.38982248  0.06159055     0.40600
H360        H  0.18729637  0.91588240  0.04096815     0.35500
C361        C  0.26079552  0.21430626  0.88291649    -0.26200
C362        C  0.25560003  0.18831827  0.89733873    -0.14300
C363        C  0.27870170  0.19068355  0.91520391     0.36300
C364        C  0.30649186  0.21820104  0.91742288    -0.25700
C365        C  0.31220523  0.24371234  0.90203432    -0.14900
C366        C  0.28861955  0.24194426  0.88518370     0.37400
N367        N  0.29305091  0.26811330  0.87017629    -0.89100
H368        H  0.24316125  0.21306119  0.86958242     0.18500
H369        H  0.32425012  0.21906402  0.93035879     0.18500
N370        N  0.27467093  0.16497193  0.93052369    -0.88200
H371        H  0.29551964  0.28459660  0.88432846     0.35900
H372        H  0.27372159  0.26292207  0.85854437     0.41000
H373        H  0.27715132  0.17075827  0.95118427     0.40600
H374        H  0.29203620  0.16049409  0.92508861     0.35500
C375        C  0.07808827  0.45597617  0.89914747    -0.26200
C376        C  0.08969758  0.47063305  0.87428014    -0.14300
C377        C  0.07915635  0.45377048  0.84975307     0.36300
C378        C  0.05478788  0.42366695  0.85056323    -0.25700
C379        C  0.04120756  0.41014857  0.87544964    -0.14900
C380        C  0.05448817  0.42576415  0.90009104     0.37400
N381        N  0.04291208  0.41239260  0.92638225    -0.89100
H382        H  0.08664389  0.46848188  0.91805664     0.18500
H383        H  0.53822399  0.41284145  0.83424781     0.18500
N384        N  0.05195496  0.98565314  0.83416107    -0.88200
H385        H  0.06095309  0.41283583  0.93712791     0.35900
H386        H  0.02635076  0.38942056  0.92464041     0.41000
H387        H  0.07144485  0.00714170  0.83534549     0.40600
H388        H  0.08833756  0.48629741  0.82158455     0.35500
C389        C  0.28736104  0.05998702  0.92144430    -0.26200
C390        C  0.29329859  0.04625779  0.89905910    -0.14300
C391        C  0.26978045  0.03073490  0.87963643     0.36300
C392        C  0.24293628  0.03222259  0.88147864    -0.25700
C393        C  0.23873694  0.04924433  0.90200943    -0.14900
C394        C  0.26074525  0.06187773  0.92305926     0.37400
N395        N  0.25771799  0.07805708  0.94566516    -0.89100
H396        H  0.30431505  0.07092668  0.93732329     0.18500
H397        H  0.22594534  0.02131355  0.86561729     0.18500
N398        N  0.28313839  0.52838438  0.84805030    -0.88200
H399        H  0.23729320  0.06371527  0.95583167     0.35900
H400        H  0.25733531  0.09719132  0.93845454     0.41000
H401        H  0.28473012  0.50919620  0.85287794     0.40600
H402        H  0.30366611  0.54493357  0.83937545     0.35500
C403        C  0.04104761  0.11376728  0.90102842    -0.26200
C404        C  0.02348345  0.11077002  0.87799367    -0.14300
C405        C  0.03636679  0.11390280  0.85173161     0.36300
C406        C  0.06556688  0.11704534  0.84912941    -0.25700
C407        C  0.08182678  0.11727367  0.87223234    -0.14900
C408        C  0.07024146  0.11726558  0.89839170     0.37400
N409        N  0.08730834  0.11837065  0.92219105    -0.89100
H410        H  0.03132439  0.11182150  0.92112364     0.18500
H411        H  0.07441495  0.11659481  0.82912084     0.18500
N412        N  0.01892065  0.11154781  0.82782673    -0.88200
H413        H  0.07542141  0.11757045  0.93991034     0.35900
H414        H  0.10752413  0.13942469  0.92226902     0.41000
H415        H  0.49873916  0.08829443  0.82807470     0.40600
H416        H  0.03182576  0.11460812  0.81022589     0.35500
C417        C  0.42820294  0.04046383  0.09880415    -0.26200
C418        C  0.41847468  0.02625764  0.12422322    -0.14300
C419        C  0.43790144  0.03783257  0.14683249     0.36300
C420        C  0.46724063  0.06308622  0.14344012    -0.25700
C421        C  0.47809495  0.07622842  0.11757687    -0.14900
C422        C  0.45799435  0.06510304  0.09506394     0.37400
N423        N  0.46826820  0.07739851  0.06827739    -0.89100
H424        H  0.41328999  0.03068639  0.08133181     0.18500
H425        H  0.48224242  0.07154201  0.16096063     0.18500
N426        N  0.42849111  0.02260082  0.17265817    -0.88200
H427        H  0.45038898  0.06697840  0.05422237     0.35900
H428        H  0.98634674  0.07329831  0.06490422     0.41000
H429        H  0.40987807  0.02441367  0.17946694     0.40600
H430        H  0.44580266  0.03353303  0.18715667     0.35500
C431        C  0.19495592  0.27440204  0.08946469    -0.26200
C432        C  0.19914004  0.25148917  0.10101870    -0.14300
C433        C  0.22890626  0.25746806  0.10674231     0.36300
C434        C  0.25368009  0.28713216  0.10303134    -0.25700
C435        C  0.24923090  0.31065242  0.09327002    -0.14900
C436        C  0.21973262  0.30385206  0.08518478     0.37400
N437        N  0.21465870  0.32734319  0.07471233    -0.89100
H438        H  0.17203544  0.26948698  0.08454763     0.18500
H439        H  0.27637899  0.29237102  0.10920187     0.18500
N440        N  0.23369052  0.23396610  0.11763269    -0.88200
H441        H  0.19140039  0.31884342  0.07101980     0.35900
H442        H  0.22555044  0.33388592  0.05579513     0.41000
H443        H  0.22335704  0.22814095  0.13681684     0.40600
H444        H  0.25700288  0.24214834  0.12069063     0.35500
C445        C  0.07995117  0.28934859  0.10228457    -0.26200
C446        C  0.05179774  0.28452748  0.11225130    -0.14300
C447        C  0.02719399  0.25427858  0.11459234     0.36300
C448        C  0.03200503  0.22979568  0.10881000    -0.25700
C449        C  0.06077156  0.23493595  0.10023723    -0.14900
C450        C  0.08466586  0.26500822  0.09628374     0.37400
N451        N  0.11426999  0.27067264  0.08767196    -0.89100
H452        H  0.09874473  0.31240501  0.09976119     0.18500
H453        H  0.01376819  0.20675167  0.11261165     0.18500
N454        N  0.99779541  0.24773502  0.12428424    -0.88200
H455        H  0.12964416  0.29403228  0.08623973     0.35900
H456        H  0.11191615  0.26176249  0.06803414     0.41000
H457        H  0.98897913  0.25725509  0.11078752     0.40600
H458        H  0.00056023  0.25800201  0.14335452     0.35500
C459        C  0.12492045  0.05907099  0.10583524    -0.26200
C460        C  0.11740529  0.06903147  0.12979225    -0.14300
C461        C  0.10574731  0.04924791  0.15223278     0.36300
C462        C  0.09903687  0.01905859  0.14941324    -0.25700
C463        C  0.10345880  0.00795907  0.12449711    -0.14900
C464        C  0.11794928  0.02869266  0.10294795     0.37400
N465        N  0.12426786  0.01882227  0.07767021    -0.89100
H466        H  0.13393307  0.07418895  0.08848517     0.18500
H467        H  0.08912359  0.00384327  0.16658752     0.18500
N468        N  0.09951292  0.05961252  0.17743406    -0.88200
H469        H  0.14772455  0.03199396  0.07388834     0.35900
H470        H  0.13020965  0.50753422  0.07077613     0.41000
H471        H  0.12035704  0.07679659  0.18512186     0.40600
H472        H  0.09064401  0.04218931  0.19189944     0.35500
C473        C  0.13858063  0.13684270  0.01152590    -0.26200
C474        C  0.10780993  0.12441020  0.01917419    -0.14300
C475        C  0.08542564  0.09898946  0.00446804     0.36300
C476        C  0.09442032  0.08667872  0.98293912    -0.25700
C477        C  0.12550532  0.09890225  0.97578556    -0.14900
C478        C  0.14759813  0.12450933  0.99040324     0.37400
N479        N  0.17941928  0.13868349  0.98369963    -0.89100
H480        H  0.15619603  0.15625831  0.02251695     0.18500
H481        H  0.07692863  0.06737767  0.97177371     0.18500
N482        N  0.05368122  0.08467421  0.01139240    -0.88200
H483        H  0.19126825  0.13844280  0.00103971     0.35900
H484        H  0.18712790  0.16135355  0.97859980     0.41000
H485        H  0.04667099  0.10073050  0.00949726     0.40600
H486        H  0.05106289  0.07768618  0.03171754     0.35500
C487        C  0.43172297  0.11290810  0.77524436    -0.26200
C488        C  0.40323296  0.09010089  0.78540908    -0.14300
C489        C  0.37860712  0.07478079  0.76696179     0.36300
C490        C  0.38350796  0.08186492  0.73894124    -0.25700
C491        C  0.41249175  0.10338324  0.72905994    -0.14900
C492        C  0.43657887  0.11954429  0.74740142     0.37400
N493        N  0.46610327  0.14226996  0.73753224    -0.89100
H494        H  0.45083674  0.12518873  0.78896792     0.18500
H495        H  0.36506786  0.06946277  0.72458170     0.18500
N496        N  0.34890122  0.05216062  0.77648625    -0.88200
H497        H  0.48155571  0.15201016  0.75364368     0.35900
H498        H  0.46364762  0.15971570  0.72892400     0.41000
H499        H  0.35036288  0.03320354  0.78241788     0.40600
H500        H  0.33304427  0.04477814  0.76056777     0.35500
C501        C  0.48514188  0.12148698  0.47964332    -0.26200
C502        C  0.01502516  0.13396570  0.47826377    -0.14300
C503        C  0.02889777  0.13907252  0.50413555     0.36300
C504        C  0.01073848  0.13153749  0.52765058    -0.25700
C505        C  0.48056050  0.11817101  0.52891581    -0.14900
C506        C  0.46665526  0.11255169  0.50318385     0.37400
N507        N  0.43404089  0.09896768  0.50097830    -0.89100
H508        H  0.47418006  0.11823869  0.46010839     0.18500
H509        H  0.02200903  0.13679285  0.54722429     0.18500
N510        N  0.06131766  0.15293911  0.50735299    -0.88200
H511        H  0.42738623  0.09615476  0.48054934     0.35900
H512        H  0.42802229  0.11417040  0.50937982     0.41000
H513        H  0.07180873  0.17410887  0.49772859     0.40600
H514        H  0.06850114  0.13906830  0.49802885     0.35500
C515        C  0.09437592  0.19302588  0.23329025    -0.26200
C516        C  0.09232693  0.16705815  0.22093557    -0.14300
C517        C  0.08589100  0.14180622  0.23746745     0.36300
C518        C  0.08057396  0.14252514  0.26535580    -0.25700
C519        C  0.08173310  0.16806636  0.27767552    -0.14900
C520        C  0.08910416  0.19372131  0.26140657     0.37400
N521        N  0.09045360  0.22020759  0.27308815    -0.89100
H522        H  0.09912241  0.21257185  0.22097660     0.18500
H523        H  0.07571902  0.12280826  0.27747235     0.18500
N524        N  0.08485597  0.11527238  0.22614561    -0.88200
H525        H  0.07459420  0.22415322  0.26298216     0.35900
H526        H  0.11225220  0.23873849  0.26944896     0.41000
H527        H  0.06321183  0.09657611  0.22998020     0.40600
H528        H  0.10101131  0.11176242  0.23624075     0.35500
C529        C  0.17449974  0.06258374  0.76534062    -0.26200
C530        C  0.18043553  0.09015968  0.77754815    -0.14300
C531        C  0.18869396  0.11549586  0.76041633     0.36300
C532        C  0.18885939  0.11209415  0.73206554    -0.25700
C533        C  0.18099572  0.08394550  0.71980989    -0.14900
C534        C  0.17466368  0.05916402  0.73706026     0.37400
N535        N  0.16750420  0.02993211  0.72675974    -0.89100
H536        H  0.16866863  0.04287042  0.77783868     0.18500
H537        H  0.19469779  0.13176299  0.71949838     0.18500
N538        N  0.19728488  0.14502685  0.77095137    -0.88200
H539        H  0.18590354  0.03233002  0.71513395     0.35900
H540        H  0.14792101  0.02137169  0.71462866     0.41000
H541        H  0.21531947  0.15151687  0.78468513     0.40600
H542        H  0.17861436  0.14401972  0.78103620     0.35500
C543        C  0.26856243  0.04919497  0.62579672    -0.26200
C544        C  0.25895150  0.06040461  0.60415479    -0.14300
C545        C  0.27906840  0.07385085  0.58161893     0.36300
C546        C  0.30895330  0.07837908  0.58259706    -0.25700
C547        C  0.31922875  0.06961540  0.60535488    -0.14900
C548        C  0.29833342  0.05378722  0.62667473     0.37400
N549        N  0.30687510  0.04238250  0.64966360    -0.89100
H550        H  0.25345718  0.03821314  0.64291465     0.18500
H551        H  0.32480349  0.09023758  0.56613845     0.18500
N552        N  0.26949822  0.08369500  0.55808931    -0.88200
H553        H  0.32464509  0.06059204  0.66007707     0.35900
H554        H  0.31474664  0.02813307  0.64251449     0.41000
H555        H  0.25175525  0.06432015  0.54886173     0.40600
H556        H  0.28712320  0.09363923  0.54374555     0.35500
C557        C  0.08462453  0.12511015  0.64866175    -0.26200
C558        C  0.09071999  0.11769266  0.62263505    -0.14300
C559        C  0.07430706  0.11910203  0.59999007     0.36300
C560        C  0.05095973  0.12599222  0.60416039    -0.25700
C561        C  0.04339246  0.13104028  0.63037933    -0.14900
C562        C  0.06070104  0.13119912  0.65271885     0.37400
N563        N  0.05341857  0.13662114  0.67957981    -0.89100
H564        H  0.09717830  0.12431459  0.66619682     0.18500
H565        H  0.03715703  0.12532650  0.58710743     0.18500
N566        N  0.08074381  0.11266971  0.57302483    -0.88200
H567        H  0.07286447  0.15540793  0.68764425     0.35900
H568        H  0.04842984  0.11772406  0.69157853     0.41000
H569        H  0.10298195  0.12955306  0.56804845     0.40600
H570        H  0.06628593  0.11426541  0.55875493     0.35500
C571        C  0.09728688  0.49553827  0.48737103    -0.26200
C572        C  0.11441876  0.48174779  0.47983407    -0.14300
C573        C  0.14399529  0.49341868  0.49111786     0.36300
C574        C  0.15350950  0.01610540  0.50982827    -0.25700
C575        C  0.13294244  0.02348023  0.52220957    -0.14900
C576        C  0.10174255  0.00688362  0.51448285     0.37400
N577        N  0.08011941  0.01454365  0.52560113    -0.89100
H578        H  0.07491863  0.48741498  0.47846422     0.18500
H579        H  0.17737722  0.02846992  0.51566687     0.18500
N580        N  0.16282624  0.48087335  0.48332720    -0.88200
H581        H  0.05813182  0.99991500  0.51815884     0.35900
H582        H  0.08630646  0.03634817  0.51877137     0.41000
H583        H  0.15277943  0.45889790  0.49133165     0.40600
H584        H  0.18445024  0.49311439  0.49225781     0.35500
C585        C  0.11739874  0.05046637  0.40549938    -0.26200
C586        C  0.11512769  0.03652075  0.38018288    -0.14300
C587        C  0.10939892  0.04864684  0.35661097     0.36300
C588        C  0.10332493  0.07255198  0.35931783    -0.25700
C589        C  0.10271644  0.08480222  0.38497529    -0.14900
C590        C  0.11156365  0.07455326  0.40816607     0.37400
N591        N  0.11318307  0.08676243  0.43483510    -0.89100
H592        H  0.12166883  0.04113877  0.42370635     0.18500
H593        H  0.09765201  0.08067011  0.34110094     0.18500
N594        N  0.10980584  0.54009826  0.32883702    -0.88200
H595        H  0.09175357  0.08371835  0.43995514     0.35900
H596        H  0.12927888  0.10998620  0.43456722     0.41000
H597        H  0.11504854  0.52270156  0.32924439     0.40600
H598        H  0.12804437  0.55839310  0.31891029     0.35500
C599        C  0.08710738  0.28286020  0.40256340    -0.26200
C600        C  0.05882784  0.25894715  0.39336922    -0.14300
C601        C  0.03397395  0.26406394  0.39087080     0.36300
C602        C  0.03853370  0.29344840  0.39577950    -0.25700
C603        C  0.06719073  0.31765000  0.40387145    -0.14900
C604        C  0.09142687  0.31183872  0.40807516     0.37400
N605        N  0.12114743  0.33530425  0.41648913    -0.89100
H606        H  0.10625741  0.27912007  0.40513720     0.18500
H607        H  0.01992861  0.29781062  0.39227196     0.18500
N608        N  0.50398149  0.24245594  0.37471386    -0.88200
H609        H  0.11908574  0.34359892  0.43541055     0.35900
H610        H  0.12938217  0.35299659  0.40232517     0.41000
H611        H  0.50968887  0.23775187  0.35551655     0.40600
H612        H  0.48909171  0.25074397  0.37134414     0.35500
C613        C  0.10597060  0.44185882  0.26591938    -0.26200
C614        C  0.10064408  0.41803275  0.28354509    -0.14300
C615        C  0.09197512  0.38906207  0.27238123     0.36300
C616        C  0.08654425  0.38398986  0.24420886    -0.25700
C617        C  0.08954845  0.40721793  0.22693859    -0.14900
C618        C  0.10046493  0.43667386  0.23780662     0.37400
N619        N  0.10612609  0.46145856  0.22028139    -0.89100
H620        H  0.11310783  0.46427342  0.27408734     0.18500
H621        H  0.07896943  0.36156765  0.23585343     0.18500
N622        N  0.08832245  0.36476077  0.28979885    -0.88200
H623        H  0.12911178  0.47823702  0.22226963     0.35900
H624        H  0.09278625  0.47059644  0.22701347     0.41000
H625        H  0.10973601  0.37113095  0.29811170     0.40600
H626        H  0.08170025  0.34493888  0.27852173     0.35500
C627        C  0.42433744  0.31599004  0.73695997    -0.26200
C628        C  0.40550206  0.32674032  0.72695348    -0.14300
C629        C  0.38946833  0.33482665  0.74536698     0.36300
C630        C  0.39290556  0.33245802  0.77351208    -0.25700
C631        C  0.41240677  0.32249136  0.78389561    -0.14900
C632        C  0.42801576  0.31377436  0.76522553     0.37400
N633        N  0.44741031  0.30265456  0.77487075    -0.89100
H634        H  0.43656826  0.30971637  0.72261976     0.18500
H635        H  0.38060784  0.33907180  0.78742494     0.18500
N636        N  0.36928635  0.34487037  0.73539415    -0.88200
H637        H  0.45756320  0.29777904  0.75852781     0.35900
H638        H  0.43349158  0.28202404  0.78477887     0.41000
H639        H  0.38263106  0.36572331  0.72564332     0.40600
H640        H  0.35833968  0.34896833  0.75156426     0.35500
C641        C  0.26847244  0.24033505  0.61164133    -0.26200
C642        C  0.29789674  0.24486577  0.60752043    -0.14300
C643        C  0.30130808  0.22070045  0.59716988     0.36300
C644        C  0.27533616  0.19200842  0.59299295    -0.25700
C645        C  0.24610978  0.18676857  0.59941192    -0.14900
C646        C  0.24262501  0.21144817  0.60824155     0.37400
N647        N  0.21321051  0.20779837  0.61417564    -0.89100
H648        H  0.26563637  0.25885959  0.61909507     0.18500
H649        H  0.27810202  0.17316558  0.58635439     0.18500
N650        N  0.33123507  0.22523654  0.59151065    -0.88200
H651        H  0.20362818  0.19315136  0.63073594     0.35900
H652        H  0.19914783  0.19809671  0.59719153     0.41000
H653        H  0.34060261  0.24098280  0.57565635     0.40600
H654        H  0.32979917  0.20512581  0.58445248     0.35500
C655        C  0.03374091  0.43519373  0.59458335    -0.26200
C656        C  0.01966718  0.42133425  0.61921787    -0.14300
C657        C  0.03719058  0.43074717  0.64360314     0.36300
C658        C  0.06715565  0.45538995  0.64307176    -0.25700
C659        C  0.07971498  0.47121050  0.61887370    -0.14900
C660        C  0.06350364  0.46024357  0.59419442     0.37400
N661        N  0.07680813  0.47580478  0.56904975    -0.89100
H662        H  0.02078835  0.42785074  0.57579884     0.18500
H663        H  0.07969487  0.46369502  0.66199217     0.18500
N664        N  0.02518138  0.41615740  0.66923573    -0.88200
H665        H  0.06178666  0.46526761  0.55279177     0.35900
H666        H  0.09320497  0.97102526  0.57228408     0.41000
H667        H  0.50889240  0.39754222  0.67440613     0.40600
H668        H  0.00759759  0.41999564  0.67531340     0.35500
C669        C  0.45106516  0.22898716  0.59157143    -0.26200
C670        C  0.45057873  0.21741816  0.61770901    -0.14300
C671        C  0.44931350  0.23321323  0.64065178     0.36300
C672        C  0.44619113  0.25879343  0.63728172    -0.25700
C673        C  0.44306734  0.26856101  0.61123863    -0.14900
C674        C  0.44705006  0.25436990  0.58815211     0.37400
N675        N  0.44525049  0.26438152  0.56137149    -0.89100
H676        H  0.45241619  0.21707828  0.57376012     0.18500
H677        H  0.44429730  0.26997048  0.65541013     0.18500
N678        N  0.96255703  0.23056916  0.66264451    -0.88200
H679        H  0.46565508  0.27018685  0.55122494     0.35900
H680        H  0.42744856  0.24610054  0.55100965     0.41000
H681        H  0.94597465  0.22830299  0.67668348     0.40600
H682        H  0.98347606  0.24914128  0.66859738     0.35500
C683        C  0.39562616  0.45005400  0.65810155    -0.26200
C684        C  0.38150628  0.42969210  0.63652513    -0.14300
C685        C  0.37275446  0.43982584  0.61318143     0.36300
C686        C  0.38044437  0.47041008  0.61113289    -0.25700
C687        C  0.39697530  0.49144579  0.63183388    -0.14900
C688        C  0.40326228  0.48053927  0.65613688     0.37400
N689        N  0.41810238  0.50035939  0.67879648    -0.89100
H690        H  0.40222907  0.44261509  0.67622186     0.18500
H691        H  0.37477280  0.47800412  0.59259650     0.18500
N692        N  0.35808930  0.42025221  0.59040026    -0.88200
H693        H  0.43833715  0.50024030  0.68285235     0.35900
H694        H  0.40385344  0.49157184  0.69580543     0.41000
H695        H  0.33745179  0.40180000  0.59699954     0.40600
H696        H  0.37226048  0.41229254  0.58319405     0.35500
C697        C  0.29406054  0.37598641  0.26063076    -0.26200
C698        C  0.31366290  0.40094628  0.27682058    -0.14300
C699        C  0.33100923  0.42981746  0.26472838     0.36300
C700        C  0.32972414  0.43306674  0.23651903    -0.25700
C701        C  0.31170008  0.40780789  0.21993536    -0.14900
C702        C  0.29317423  0.37910341  0.23225623     0.37400
N703        N  0.27353016  0.35304997  0.21604429    -0.89100
H704        H  0.28027312  0.35381899  0.26986316     0.18500
H705        H  0.34393187  0.45525788  0.22747296     0.18500
N706        N  0.34997854  0.45596425  0.28114031    -0.88200
H707        H  0.25111956  0.34442036  0.22297968     0.35900
H708        H  0.27965010  0.33647313  0.21926101     0.41000
H709        H  0.34289996  0.47187719  0.27831533     0.40600
H710        H  0.37245936  0.46552936  0.27410149     0.35500
C711        C  0.38830848  0.38064206  0.47669409    -0.26200
C712        C  0.36498136  0.38819776  0.47722695    -0.14300
C713        C  0.35195676  0.38850680  0.50233497     0.36300
C714        C  0.36116427  0.37987435  0.52606480    -0.25700
C715        C  0.38369686  0.37107397  0.52564210    -0.14900
C716        C  0.39799178  0.37248753  0.50057465     0.37400
N717        N  0.42163147  0.36486897  0.49898055    -0.89100
H718        H  0.39864203  0.38038298  0.45742272     0.18500
H719        H  0.34973695  0.37929815  0.54488941     0.18500
N720        N  0.32816592  0.39594386  0.50367554    -0.88200
H721        H  0.44119295  0.38363457  0.49106201     0.35900
H722        H  0.41469665  0.34686176  0.48521567     0.41000
H723        H  0.33515107  0.41426517  0.51708736     0.40600
H724        H  0.30871011  0.37731478  0.51189029     0.35500
C725        C  0.41317677  0.03286816  0.39773882    -0.26200
C726        C  0.40588002  0.01343168  0.37513276    -0.14300
C727        C  0.42053236  0.02598443  0.34997008     0.36300
C728        C  0.44447714  0.05618925  0.34878719    -0.25700
C729        C  0.45350043  0.07477238  0.37192388    -0.14900
C730        C  0.43667918  0.06352363  0.39630231     0.37400
N731        N  0.93864222  0.08456231  0.41200676    -0.89100
H732        H  0.39769020  0.52387748  0.41194574     0.18500
H733        H  0.45694789  0.06481641  0.32986854     0.18500
N734        N  0.41162886  0.00808135  0.32555238    -0.88200
H735        H  0.92292148  0.07391976  0.42778760     0.35900
H736        H  0.93429991  0.10108908  0.40409109     0.41000
H737        H  0.43068928  0.00762316  0.31787670     0.40600
H738        H  0.40505024  0.01889492  0.31122841     0.35500
C739        C  0.22050075  0.28064139  0.41552763    -0.26200
C740        C  0.23676148  0.28605601  0.39100468    -0.14300
C741        C  0.22433183  0.26474346  0.36979472     0.36300
C742        C  0.19509462  0.23925590  0.37270139    -0.25700
C743        C  0.17761796  0.23486449  0.39639170    -0.14900
C744        C  0.19092357  0.25514199  0.41847617     0.37400
N745        N  0.17353543  0.25122915  0.44282445    -0.89100
H746        H  0.23014761  0.29729599  0.43177079     0.18500
H747        H  0.18523491  0.22375809  0.35562995     0.18500
N748        N  0.24083677  0.26965921  0.34481287    -0.88200
H749        H  0.18609485  0.26896893  0.45653058     0.35900
H750        H  0.17005076  0.23133450  0.45227141     0.41000
H751        H  0.22745616  0.27047095  0.32899230     0.40600
H752        H  0.24371560  0.25092869  0.34142655     0.35500
C753        C  0.42746212  0.37311837  0.39470686    -0.26200
C754        C  0.41748876  0.37530265  0.36858064    -0.14300
C755        C  0.43727094  0.38161774  0.34613108     0.36300
C756        C  0.46683270  0.38668132  0.35042501    -0.25700
C757        C  0.47757926  0.38711967  0.37688405    -0.14900
C758        C  0.45749605  0.37957589  0.39909957     0.37400
N759        N  0.46769490  0.37901619  0.42617603    -0.89100
H760        H  0.41256434  0.36851508  0.41211009     0.18500
H761        H  0.48213219  0.39228359  0.33317173     0.18500
N762        N  0.42813141  0.38344540  0.31893233    -0.88200
H763        H  0.45358469  0.35731383  0.43420154     0.35900
H764        H  0.46481749  0.39454273  0.43800423     0.41000
H765        H  0.42359239  0.40132330  0.31785034     0.40600
H766        H  0.40804786  0.36313036  0.31450288     0.35500
C767        C  0.24175393  0.43868212  0.36997390    -0.26200
C768        C  0.25214084  0.43320825  0.39475732    -0.14300
C769        C  0.23911591  0.43583948  0.41931037     0.36300
C770        C  0.21471466  0.44185671  0.41835157    -0.25700
C771        C  0.20318505  0.44552026  0.39338638    -0.14900
C772        C  0.21756431  0.44475515  0.36908316     0.37400
N773        N  0.20638261  0.44806474  0.34328908    -0.89100
H774        H  0.25173546  0.43706662  0.35092909     0.18500
H775        H  0.20374928  0.44240219  0.43715900     0.18500
N776        N  0.24957559  0.43094384  0.44496641    -0.88200
H777        H  0.19979581  0.42830334  0.33191536     0.35900
H778        H  0.22438844  0.46624157  0.33304278     0.41000
H779        H  0.24417750  0.40822398  0.44556906     0.40600
H780        H  0.23774727  0.43391526  0.46106426     0.35500
Zn781      Zn  0.33059535  0.86203659  0.39302919     1.49700
Zn782      Zn  0.29150018  0.88339301  0.35989110     1.49400
Zn783      Zn  0.33434487  0.92571817  0.40932586     1.49100
Zn784      Zn  0.36221824  0.91799972  0.35299462     1.49500
O785        O  0.32963006  0.89754190  0.37922223    -1.84000
O786        O  0.28807124  0.82381983  0.39295945    -0.74600
O787        O  0.27316296  0.90782191  0.37246013    -0.74500
O788        O  0.34771293  0.91262376  0.44489703    -0.74000
O789        O  0.26127204  0.83966797  0.36916567    -0.74700
O790        O  0.34560200  0.86984530  0.43124652    -0.74300
O791        O  0.29474033  0.92822061  0.41243192    -0.74800
O792        O  0.38470993  0.96246240  0.35990775    -0.74200
O793        O  0.29667297  0.88878932  0.31890560    -0.75000
O794        O  0.36736666  0.96940797  0.39914518    -0.74400
O795        O  0.34715013  0.91396362  0.31466603    -0.74800
O796        O  0.39154094  0.90258975  0.35609379    -0.74800
O797        O  0.36391453  0.85699338  0.37522366    -0.74500
C798        C  0.26289943  0.81920030  0.38272660     0.77200
C799        C  0.27480782  0.92271678  0.39386510     0.77700
C800        C  0.35183078  0.89003037  0.44931983     0.76700
C801        C  0.38468227  0.98007307  0.37827347     0.77100
C802        C  0.32063076  0.90247170  0.30426959     0.78200
C803        C  0.38876092  0.87773553  0.36472617     0.77300
Zn804      Zn  0.39010080  0.80644570  0.64135208     1.49700
Zn805      Zn  0.42824714  0.84417767  0.58992674     1.49400
Zn806      Zn  0.36660507  0.84408371  0.60948395     1.49100
Zn807      Zn  0.42440029  0.87558326  0.64726640     1.49500
O808        O  0.40289934  0.84315449  0.62138018    -1.84000
O809        O  0.41545053  0.78859685  0.63174427    -0.74600
O810        O  0.41177440  0.85364896  0.55377543    -0.74500
O811        O  0.32856309  0.80195681  0.61072145    -0.74000
O812        O  0.43162710  0.80434537  0.58955191    -0.74700
O813        O  0.34863128  0.77604496  0.62927760    -0.74300
O814        O  0.37170622  0.85492890  0.57056314    -0.74800
O815        O  0.40984218  0.90555877  0.64414947    -0.74200
O816        O  0.47190904  0.87946207  0.59700638    -0.75000
O817        O  0.36370968  0.87964368  0.62533264    -0.74400
O818        O  0.46850613  0.89729858  0.63758870    -0.74800
O819        O  0.42003258  0.86107212  0.68640675    -0.74800
O820        O  0.39275944  0.81101379  0.68201593    -0.74500
C821        C  0.42815274  0.78710911  0.60996298     0.77200
C822        C  0.38923085  0.85835977  0.55070901     0.77700
C823        C  0.32693014  0.77684254  0.61707267     0.76700
C824        C  0.38541538  0.90410083  0.63551908     0.77100
C825        C  0.48421562  0.89742055  0.61729139     0.78200
C826        C  0.40686418  0.83457029  0.69687292     0.77300
Zn827      Zn  0.12725864  0.95783555  0.36616710     1.49700
Zn828      Zn  0.07089077  0.94420530  0.40512842     1.49400
Zn829      Zn  0.06577713  0.89308029  0.36684556     1.49100
Zn830      Zn  0.10944202  0.91411130  0.41863137     1.49500
O831        O  0.09383673  0.92742658  0.38874860    -1.84000
O832        O  0.12948339  0.50103641  0.37227260    -0.74600
O833        O  0.02557161  0.91830459  0.39952560    -0.74500
O834        O  0.07857581  0.89860349  0.32796517    -0.74000
O835        O  0.08470100  0.98497900  0.38988217    -0.74700
O836        O  0.11748544  0.94617090  0.32573031    -0.74300
O837        O  0.02306956  0.88620680  0.36748428    -0.74800
O838        O  0.08723751  0.86758741  0.42095758    -0.74200
O839        O  0.08178415  0.95525893  0.44406725    -0.75000
O840        O  0.06388145  0.85561507  0.38059070    -0.74400
O841        O  0.11360218  0.93843775  0.45324778    -0.74800
O842        O  0.15205308  0.92542877  0.41019734    -0.74800
O843        O  0.16714712  0.95790079  0.37563405    -0.74500
C844        C  0.10726812  0.50532918  0.37842700     0.77200
C845        C  0.01036752  0.89715186  0.38241911     0.77700
C846        C  0.09819499  0.92119535  0.31428157     0.76700
C847        C  0.07229600  0.84821711  0.40221790     0.77100
C848        C  0.10155069  0.95450512  0.45945310     0.78200
C849        C  0.17250764  0.94278665  0.39343225     0.77300
Zn850      Zn  0.12841283  0.56380975  0.59568122     1.49700
Zn851      Zn  0.17100446  0.54902623  0.63487530     1.49400
Zn852      Zn  0.19731714  0.59238587  0.58256515     1.49100
Zn853      Zn  0.17384541  0.61290190  0.63514948     1.49500
O854        O  0.16805121  0.57935471  0.61242145    -1.84000
O855        O  0.09855024  0.02067187  0.62032114    -0.74600
O856        O  0.21051126  0.54841714  0.62514396    -0.74500
O857        O  0.17639546  0.56791940  0.54783080    -0.74000
O858        O  0.13029994  0.00397068  0.63182189    -0.74700
O859        O  0.12783957  0.55273211  0.55649835    -0.74300
O860        O  0.22921234  0.58116914  0.59082491    -0.74800
O861        O  0.20929976  0.65034366  0.62147931    -0.74200
O862        O  0.17346608  0.56033128  0.67543557    -0.75000
O863        O  0.22065515  0.63904054  0.58066902    -0.74400
O864        O  0.17986194  0.60670253  0.67421371    -0.74800
O865        O  0.13865728  0.62049328  0.63462330    -0.74800
O866        O  0.10907564  0.59001409  0.60174665    -0.74500
C867        C  0.10343011  0.99929213  0.62674154     0.77200
C868        C  0.23149839  0.56333988  0.60754434     0.77700
C869        C  0.14815402  0.55267411  0.54128144     0.76700
C870        C  0.22457047  0.65820945  0.59947906     0.77100
C871        C  0.17766378  0.58435453  0.68766208     0.78200
C872        C  0.11530655  0.61070589  0.61944619     0.77300
Zn873      Zn  0.08403442  0.65935797  0.41091179     1.49700
Zn874      Zn  0.04683994  0.62642904  0.35563337     1.49400
Zn875      Zn  0.02365505  0.66118683  0.39261731     1.49100
Zn876      Zn  0.08439937  0.69645843  0.35867498     1.49500
O877        O  0.05977359  0.66042510  0.37984419    -1.84000
O878        O  0.09295572  0.62461418  0.40428923    -0.74600
O879        O  0.00142334  0.59916333  0.35881884    -0.74500
O880        O  0.01656356  0.64869160  0.43132090    -0.74000
O881        O  0.06788382  0.60356870  0.36587888    -0.74700
O882        O  0.05836065  0.65007584  0.44703873    -0.74300
O883        O  0.48750945  0.62555944  0.37962699    -0.74800
O884        O  0.07538618  0.72884656  0.37062332    -0.74200
O885        O  0.05811068  0.63917042  0.31650725    -0.75000
O886        O  0.03057467  0.70408445  0.39199742    -0.74400
O887        O  0.08090591  0.68939044  0.31776365    -0.74800
O888        O  0.12812997  0.71329349  0.36782523    -0.74800
O889        O  0.12695665  0.69905277  0.41084394    -0.74500
C890        C  0.08538195  0.60503021  0.38515280     0.77200
C891        C  0.48488418  0.60095905  0.36995730     0.77700
C892        C  0.03109135  0.64519410  0.45067794     0.76700
C893        C  0.05372206  0.72876235  0.38396169     0.77100
C894        C  0.07137601  0.66475090  0.30438891     0.78200
C895        C  0.14160563  0.71548732  0.39025268     0.77300
Zn896      Zn  0.44900562  0.58750781  0.65072024     1.49700
Zn897      Zn  0.47008856  0.64200321  0.61120419     1.49400
Zn898      Zn  0.40995251  0.57728006  0.59619580     1.49100
Zn899      Zn  0.41003854  0.61929310  0.64650335     1.49500
O900        O  0.43420319  0.60626076  0.62570694    -1.84000
O901        O  0.49339929  0.60324652  0.64576427    -0.74600
O902        O  0.47587905  0.63388147  0.57299774    -0.74500
O903        O  0.40036807  0.53408820  0.60704698    -0.74000
O904        O  0.01300253  0.65421073  0.62195462    -0.74700
O905        O  0.42730429  0.54314821  0.64489482    -0.74300
O906        O  0.43576013  0.59030047  0.55970384    -0.74800
O907        O  0.36684063  0.59518329  0.63411058    -0.74200
O908        O  0.46456291  0.67896615  0.61119602    -0.75000
O909        O  0.36708930  0.57378902  0.59452031    -0.74400
O910        O  0.42355705  0.66352209  0.63769150    -0.74800
O911        O  0.40983694  0.61139834  0.68741325    -0.74800
O912        O  0.44082167  0.59234159  0.68935564    -0.74500
C913        C  0.01793136  0.63487461  0.63392886     0.77200
C914        C  0.46228950  0.61347321  0.55503589     0.77700
C915        C  0.40865161  0.52457101  0.62760669     0.76700
C916        C  0.35295194  0.57970169  0.61314989     0.77100
C917        C  0.44454149  0.68356743  0.62256970     0.78200
C918        C  0.42368427  0.60055942  0.70096312     0.77300
Zn919      Zn  0.07176588  0.62238496  0.13741514     1.49700
Zn920      Zn  0.06539098  0.65444792  0.08271454     1.49400
Zn921      Zn  0.10771310  0.69201307  0.13315042     1.49100
Zn922      Zn  0.12826887  0.65444605  0.09785062     1.49500
O923        O  0.09277038  0.65542808  0.11218359    -1.84000
O924        O  0.02714308  0.60054876  0.12982393    -0.74600
O925        O  0.06005816  0.69281004  0.08558113    -0.74500
O926        O  0.10584486  0.68633185  0.17407269    -0.74000
O927        O  0.02252007  0.61895299  0.09017087    -0.74700
O928        O  0.07687983  0.63623634  0.17631164    -0.74300
O929        O  0.08182669  0.70950728  0.12598819    -0.74800
O930        O  0.16717632  0.69586405  0.09946154    -0.74200
O931        O  0.08004539  0.64599340  0.04513511    -0.75000
O932        O  0.14910627  0.72279416  0.11980273    -0.74400
O933        O  0.12133013  0.64478802  0.05885845    -0.74800
O934        O  0.13128116  0.61836662  0.11144885    -0.74800
O935        O  0.08670218  0.59286441  0.13307711    -0.74500
C936        C  0.01085852  0.60068907  0.11020371     0.77200
C937        C  0.06574221  0.71007764  0.10648629     0.77700
C938        C  0.09087047  0.66208363  0.18792886     0.76700
C939        C  0.17016225  0.72127449  0.10694115     0.77100
C940        C  0.10250722  0.64154669  0.04034164     0.78200
C941        C  0.11061220  0.59432257  0.12297747     0.77300
Zn942      Zn  0.17181235  0.62247354  0.85974581     1.49700
Zn943      Zn  0.16978199  0.55862177  0.85846355     1.49400
Zn944      Zn  0.18925488  0.59775654  0.91288604     1.49100
Zn945      Zn  0.12207933  0.56577229  0.89227881     1.49500
O946        O  0.16394678  0.58664013  0.88061006    -1.84000
O947        O  0.17575463  0.61462263  0.81903884    -0.74600
O948        O  0.20656812  0.55812729  0.87137324    -0.74500
O949        O  0.22291121  0.64082212  0.90912939    -0.74000
O950        O  0.17486404  0.57056485  0.81937817    -0.74700
O951        O  0.21134903  0.65997986  0.87358414    -0.74300
O952        O  0.21176107  0.57341029  0.91448952    -0.74800
O953        O  0.11826160  0.57915298  0.93001204    -0.74200
O954        O  0.13488256  0.51561470  0.86089953    -0.75000
O955        O  0.16549409  0.59987221  0.94621866    -0.74400
O956        O  0.10292016  0.52017129  0.88899828    -0.74800
O957        O  0.09887259  0.58003158  0.87019810    -0.74800
O958        O  0.13501515  0.62859549  0.86527714    -0.74500
C959        C  0.17647046  0.59293316  0.80637443     0.77200
C960        C  0.21957846  0.56254337  0.89444092     0.77700
C961        C  0.22904531  0.66302614  0.89345300     0.76700
C962        C  0.13776911  0.59381256  0.94853124     0.77100
C963        C  0.11030507  0.50386542  0.87466721     0.78200
C964        C  0.10694754  0.60794021  0.86740360     0.77300
Zn965      Zn  0.08879396  0.87988744  0.14377736     1.49700
Zn966      Zn  0.05126280  0.91330700  0.14821465     1.49400
Zn967      Zn  0.08765812  0.91984050  0.09234096     1.49100
Zn968      Zn  0.02828131  0.85662399  0.11041773     1.49500
O969        O  0.06457642  0.89280036  0.12335594    -1.84000
O970        O  0.08986089  0.88859001  0.18455527    -0.74600
O971        O  0.07335365  0.95745861  0.14025769    -0.74500
O972        O  0.13024787  0.92303628  0.08983625    -0.74000
O973        O  0.06196232  0.91101157  0.18694658    -0.74700
O974        O  0.13169506  0.90368472  0.13018620    -0.74300
O975        O  0.09806963  0.96346444  0.10138009    -0.74800
O976        O  0.02247697  0.86184438  0.07207423    -0.74200
O977        O  0.00625922  0.89722722  0.14446221    -0.75000
O978        O  0.06067811  0.90529718  0.05669303    -0.74400
O979        O  0.49010518  0.85378118  0.12736705    -0.74800
O980        O  0.03147912  0.81888669  0.11237097    -0.74800
O981        O  0.07421029  0.83521335  0.13629879    -0.74500
C982        C  0.07848141  0.90189030  0.19828877     0.77200
C983        C  0.09116482  0.97459468  0.12169908     0.77700
C984        C  0.14489698  0.91806439  0.10853288     0.76700
C985        C  0.03482505  0.88092663  0.05310034     0.77100
C986        C  0.48613233  0.87411198  0.13877107     0.78200
C987        C  0.05168236  0.81433011  0.12310474     0.77300
Zn988      Zn  0.39034797  0.82856285  0.86845696     1.49700
Zn989      Zn  0.41145922  0.80558742  0.91934398     1.49400
Zn990      Zn  0.45199990  0.82476118  0.86356867     1.49100
Zn991      Zn  0.44836242  0.87310632  0.90235266     1.49500
O992        O  0.42552812  0.83250216  0.88803922    -1.84000
O993        O  0.35191463  0.79169371  0.88098547    -0.74600
O994        O  0.42199765  0.77363998  0.91257483    -0.74500
O995        O  0.43803069  0.82251292  0.82392695    -0.74000
O996        O  0.36434440  0.78097736  0.92129665    -0.74700
O997        O  0.39608538  0.82607121  0.82836020    -0.74300
O998        O  0.44975824  0.78485907  0.87475502    -0.74800
O999        O  0.48779550  0.89547234  0.88389634    -0.74200
O1000       O  0.43641208  0.82690071  0.95387733    -0.75000
O1001       O  0.99299270  0.85731919  0.86276328    -0.74400
O1002       O  0.46224862  0.87505043  0.94094508    -0.74800
O1003       O  0.42759395  0.89676088  0.89582912    -0.74800
O1004       O  0.38600391  0.86555788  0.87215133    -0.74500
C1005       C  0.34459920  0.77578374  0.90262391     0.77200
C1006       C  0.43662494  0.76743752  0.89510408     0.77700
C1007       C  0.41590087  0.82444252  0.81357823     0.76700
C1008       C  0.00224313  0.88459319  0.87039978     0.77100
C1009       C  0.45703657  0.85455050  0.95832709     0.78200
C1010       C  0.40391705  0.89147943  0.88245953     0.77300
Zn1011     Zn  0.30167996  0.90748946  0.08276944     1.49700
Zn1012     Zn  0.36996900  0.93537864  0.09944317     1.49400
Zn1013     Zn  0.32648499  0.94930790  0.13556571     1.49100
Zn1014     Zn  0.32168514  0.88413196  0.13541595     1.49500
O1015       O  0.32927426  0.91876272  0.11365545    -1.84000
O1016       O  0.32438335  0.93362736  0.04955694    -0.74600
O1017       O  0.39724793  0.97412685  0.11824430    -0.74500
O1018       O  0.28758865  0.95043543  0.12555678    -0.74000
O1019       O  0.37240867  0.95040299  0.06139980    -0.74700
O1020       O  0.26939589  0.91830269  0.09073795    -0.74300
O1021       O  0.36473354  0.49220901  0.13454581    -0.74800
O1022       O  0.31196281  0.88919915  0.17401410    -0.74200
O1023       O  0.38838524  0.90838225  0.10456468    -0.75000
O1024       O  0.32358694  0.93762279  0.17566627    -0.74400
O1025       O  0.35849556  0.87858467  0.13770165    -0.74800
O1026       O  0.28751566  0.84676064  0.11859481    -0.74800
O1027       O  0.27842646  0.86118558  0.07838774    -0.74500
C1028       C  0.35300720  0.95044120  0.04503164     0.77200
C1029       C  0.39192141  0.49758556  0.12996594     0.77700
C1030       C  0.26682262  0.93580842  0.10776885     0.76700
C1031       C  0.31625973  0.91248223  0.18745098     0.77100
C1032       C  0.38243847  0.88871050  0.12313084     0.78200
C1033       C  0.27325055  0.84059547  0.09600032     0.77300
Zn1034     Zn  0.39187816  0.58404552  0.91988876     1.49700
Zn1035     Zn  0.37603134  0.54072159  0.86734781     1.49400
Zn1036     Zn  0.43716651  0.60572663  0.86976876     1.49100
Zn1037     Zn  0.43163206  0.55490891  0.90784775     1.49500
O1038       O  0.40873059  0.57116470  0.89080346    -1.84000
O1039       O  0.34924945  0.57153161  0.91024863    -0.74600
O1040       O  0.38579720  0.55249606  0.82716500    -0.74500
O1041       O  0.43657565  0.64263749  0.88162044    -0.74000
O1042       O  0.33563985  0.53892706  0.87590557    -0.74700
O1043       O  0.41319655  0.63046364  0.92190248    -0.74300
O1044       O  0.42675044  0.59861264  0.83071161    -0.74800
O1045       O  0.47732862  0.58075745  0.90274158    -0.74200
O1046       O  0.37182104  0.00164091  0.86494948    -0.75000
O1047       O  0.48020180  0.61438602  0.87244694    -0.74400
O1048       O  0.41669394  0.01723109  0.88524620    -0.74800
O1049       O  0.41970485  0.54388727  0.94666118    -0.74800
O1050       O  0.38730330  0.56025790  0.95491584    -0.74500
C1051       C  0.32929393  0.55358200  0.89337172     0.77200
C1052       C  0.40681433  0.57692405  0.81635409     0.77700
C1053       C  0.42754412  0.64986238  0.90305708     0.76700
C1054       C  0.49278261  0.60279960  0.88653089     0.77100
C1055       C  0.39336666  0.99714075  0.87262402     0.78200
C1056       C  0.39937622  0.54436033  0.96156695     0.77300
C1057       C  0.34351026  0.97972057  0.00903641    -0.26200
C1058       C  0.36414100  0.97274104  0.02193069    -0.14300
C1059       C  0.39550577  0.98975127  0.01430126     0.36300
C1060       C  0.40704117  0.51319280  0.99624516    -0.25700
C1061       C  0.38805986  0.52337280  0.98542313    -0.14900
C1062       C  0.35733039  0.50939654  0.99444826     0.37400
N1063       N  0.33664017  0.51799238  0.98292891    -0.89100
H1064       H  0.31956026  0.96729495  0.01461985     0.18500
H1065       H  0.43039844  0.52297969  0.98912200     0.18500
N1066       N  0.41843249  0.98445027  0.02579484    -0.88200
H1067       H  0.31519041  0.50609286  0.99224706     0.35900
H1068       H  0.33331001  0.51124141  0.96249293     0.41000
H1069       H  0.41170555  0.96148228  0.02341306     0.40600
H1070       H  0.42110820  0.99031223  0.04641771     0.35500
C1071       C  0.42049824  0.96975164  0.86351748    -0.26200
C1072       C  0.39236743  0.96802357  0.86849191    -0.14300
C1073       C  0.36667770  0.93987640  0.87558809     0.36300
C1074       C  0.37029004  0.91431407  0.87897623    -0.25700
C1075       C  0.39927203  0.91713975  0.87653311    -0.14900
C1076       C  0.42438110  0.94483592  0.86782034     0.37400
N1077       N  0.45394154  0.94771106  0.86387346    -0.89100
H1078       H  0.44015160  0.99135126  0.85786293     0.18500
H1079       H  0.35097937  0.89271188  0.88507189     0.18500
N1080       N  0.33768853  0.93773061  0.88081877    -0.88200
H1081       H  0.47010812  0.96984161  0.85805905     0.35900
H1082       H  0.45211280  0.93348452  0.84768967     0.41000
H1083       H  0.34012463  0.95076310  0.89815108     0.40600
H1084       H  0.32120665  0.91534852  0.88558111     0.35500
C1085       C  0.45635807  0.70438639  0.88931687    -0.26200
C1086       C  0.43257811  0.68116147  0.90467717    -0.14300
C1087       C  0.41168107  0.68731145  0.91812947     0.36300
C1088       C  0.41410935  0.71581065  0.91516687    -0.25700
C1089       C  0.43698622  0.73863741  0.89881219    -0.14900
C1090       C  0.45896142  0.73313860  0.88642553     0.37400
N1091       N  0.98359383  0.75528996  0.87336232    -0.89100
H1092       H  0.47269011  0.69989397  0.87907145     0.18500
H1093       H  0.39709830  0.71958058  0.92503235     0.18500
N1094       N  0.38690347  0.66422364  0.93362981    -0.88200
H1095       H  0.99773441  0.74766185  0.86532327     0.35900
H1096       H  0.99721607  0.77337749  0.88640694     0.41000
H1097       H  0.36640081  0.66060409  0.92511802     0.40600
H1098       H  0.38836796  0.67238399  0.95346380     0.35500
C1099       C  0.48079462  0.83967379  0.99530385    -0.26200
C1100       C  0.47742834  0.86261541  0.98278093    -0.14300
C1101       C  0.49637595  0.89301197  0.99181686     0.36300
C1102       C  0.01406524  0.89754747  0.01464284    -0.25700
C1103       C  0.01656748  0.87427953  0.02756998    -0.14900
C1104       C  0.99727310  0.84383106  0.01855489     0.37400
N1105       N  0.99857367  0.81859421  0.03004457    -0.89100
H1106       H  0.46766870  0.81644023  0.98804823     0.18500
H1107       H  0.02785753  0.92079603  0.02168505     0.18500
N1108       N  0.49446777  0.91742099  0.97930729    -0.88200
H1109       H  0.49595941  0.81694069  0.04758815     0.35900
H1110       H  0.02125884  0.82348858  0.03006644     0.41000
H1111       H  0.51609945  0.93300434  0.97172416     0.40600
H1112       H  0.98478658  0.92607249  0.99710378     0.35500
C1113       C  0.41954519  0.88617427  0.15432249    -0.26200
C1114       C  0.40480225  0.87893166  0.12893562    -0.14300
C1115       C  0.41377843  0.86536212  0.10870108     0.36300
C1116       C  0.43882230  0.86119555  0.11355836    -0.25700
C1117       C  0.45545321  0.87105566  0.13801521    -0.14900
C1118       C  0.44507357  0.88267628  0.15898662     0.37400
N1119       N  0.46110892  0.89180777  0.18450024    -0.89100
H1120       H  0.41226203  0.89628652  0.16994726     0.18500
H1121       H  0.44673462  0.85226481  0.09739706     0.18500
N1122       N  0.39804453  0.85682963  0.08302350    -0.88200
H1123       H  0.45914190  0.87235444  0.19364789     0.35900
H1124       H  0.45067526  0.90008345  0.19767789     0.41000
H1125       H  0.37556254  0.83966433  0.08682218     0.40600
H1126       H  0.40765483  0.84739833  0.07020046     0.35500
C1127       C  0.19597381  0.93862926  0.12983294    -0.26200
C1128       C  0.17807738  0.92866698  0.10606249    -0.14300
C1129       C  0.19134905  0.92567093  0.08184736     0.36300
C1130       C  0.22123429  0.93011984  0.08259203    -0.25700
C1131       C  0.23826811  0.93768073  0.10699433    -0.14900
C1132       C  0.22570240  0.94331846  0.13057644     0.37400
N1133       N  0.24171615  0.95223052  0.15599692    -0.89100
H1134       H  0.18625539  0.94164741  0.14847074     0.18500
H1135       H  0.23077990  0.92638479  0.06419844     0.18500
N1136       N  0.17406662  0.91671618  0.05696741    -0.88200
H1137       H  0.26195621  0.97291425  0.15331290     0.35900
H1138       H  0.24686587  0.93559345  0.16204628     0.50600
H1139       H  0.15584130  0.89455618  0.05955959     0.40600
H1140       H  0.18643008  0.41127144  0.04286550     0.35500
C1141       C  0.26086359  0.71958910  0.88726681    -0.26200
C1142       C  0.25756658  0.69272335  0.89854546    -0.14300
C1143       C  0.28192317  0.69461069  0.91431769     0.36300
C1144       C  0.30917442  0.72254206  0.91726145    -0.25700
C1145       C  0.31316742  0.74894999  0.90454060    -0.14900
C1146       C  0.28824814  0.74764967  0.89022356     0.37400
N1147       N  0.29098816  0.77474600  0.87838948    -0.89100
H1148       H  0.24213753  0.71867353  0.87580360     0.18500
H1149       H  0.32802251  0.72305976  0.92820630     0.18500
N1150       N  0.27983284  0.66799878  0.92640049    -0.88200
H1151       H  0.29396704  0.78966224  0.89433483     0.35900
H1152       H  0.27074671  0.76994080  0.86849827     0.41000
H1153       H  0.28318554  0.67169477  0.94738568     0.40600
H1154       H  0.29751896  0.66518412  0.91860943     0.35500
C1155       C  0.08342086  0.94693243  0.87807589    -0.26200
C1156       C  0.08112539  0.97027152  0.86511422    -0.14300
C1157       C  0.05534603  0.96305310  0.84884595     0.36300
C1158       C  0.03153433  0.93297830  0.84758174    -0.25700
C1159       C  0.03225246  0.91005468  0.86280493    -0.14900
C1160       C  0.05904195  0.91678925  0.87739139     0.37400
N1161       N  0.06132191  0.89440149  0.89344693    -0.89100
H1162       H  0.10333848  0.95248251  0.89037240     0.18500
H1163       H  0.53810201  0.91780042  0.82924216     0.18500
N1164       N  0.09100035  0.46730404  0.82374366    -0.88200
H1165       H  0.07959834  0.89252472  0.88575162     0.35900
H1166       H  0.04193625  0.87295957  0.89121641     0.41000
H1167       H  0.11431506  0.47447148  0.82320270     0.40600
H1168       H  0.03406022  0.98726083  0.84318840     0.35500
C1169       C  0.29122996  0.56197647  0.91797142    -0.26200
C1170       C  0.29863445  0.55091060  0.89454830    -0.14300
C1171       C  0.27774954  0.54031601  0.87258448     0.36300
C1172       C  0.25133775  0.54261658  0.87404406    -0.25700
C1173       C  0.24512782  0.55592690  0.89666739    -0.14900
C1174       C  0.26523951  0.56493470  0.91920214     0.37400
N1175       N  0.26077890  0.57817115  0.94330238    -0.89100
H1176       H  0.30647933  0.56966637  0.93535677     0.18500
H1177       H  0.23620825  0.53501201  0.85658194     0.18500
N1178       N  0.27271127  0.01434907  0.85716188    -0.88200
H1179       H  0.23954362  0.56292706  0.95170187     0.35900
H1180       H  0.26141009  0.59843532  0.93812149     0.41000
H1181       H  0.27670970  0.99743951  0.86475012     0.40600
H1182       H  0.29108958  0.02937822  0.84504333     0.35500
C1183       C  0.04491920  0.61675792  0.89961161    -0.26200
C1184       C  0.02458740  0.60911539  0.87774676    -0.14300
C1185       C  0.03426710  0.60698948  0.85117875     0.36300
C1186       C  0.06324252  0.61002541  0.84743820    -0.25700
C1187       C  0.08271765  0.61570230  0.86960448    -0.14900
C1188       C  0.07418390  0.62056134  0.89568276     0.37400
N1189       N  0.09449685  0.62713448  0.91838357    -0.89100
H1190       H  0.03754830  0.61870272  0.91988252     0.18500
H1191       H  0.06978325  0.60584619  0.82756341     0.18500
N1192       N  0.01388753  0.59973941  0.82840882    -0.88200
H1193       H  0.08463216  0.62947988  0.93628750     0.35900
H1194       H  0.11399300  0.64823268  0.91475640     0.41000
H1195       H  0.50216707  0.59458626  0.83116089     0.40600
H1196       H  0.02460535  0.59924584  0.81033203     0.35500
C1197       C  0.42641332  0.54425585  0.10481480    -0.26200
C1198       C  0.41817081  0.52873286  0.12976059    -0.14300
C1199       C  0.43915482  0.53922423  0.15137768     0.36300
C1200       C  0.46854708  0.56429211  0.14725963    -0.25700
C1201       C  0.47783136  0.57861184  0.12161015    -0.14900
C1202       C  0.45601948  0.56895563  0.10048175     0.37400
N1203       N  0.46414687  0.58286805  0.07416688    -0.89100
H1204       H  0.41050816  0.53568949  0.08789813     0.18500
H1205       H  0.48473012  0.57165659  0.16393035     0.18500
N1206       N  0.43111781  0.52318057  0.17685725    -0.88200
H1207       H  0.44940005  0.59103812  0.06953158     0.35900
H1208       H  0.99433479  0.56487857  0.06180449     0.41000
H1209       H  0.41324090  0.52520052  0.18532144     0.40600
H1210       H  0.44935345  0.53341267  0.19058496     0.35500
C1211       C  0.19382895  0.77358739  0.08905323    -0.26200
C1212       C  0.19777701  0.75015246  0.09965510    -0.14300
C1213       C  0.22748106  0.75545228  0.10448524     0.36300
C1214       C  0.25255384  0.78495224  0.10074588    -0.25700
C1215       C  0.24838536  0.80892391  0.09183200    -0.14900
C1216       C  0.21883358  0.80284315  0.08476874     0.37400
N1217       N  0.21400593  0.82689177  0.07540213    -0.89100
H1218       H  0.17093526  0.76922081  0.08484223     0.18500
H1219       H  0.27528315  0.78968196  0.10620093     0.18500
N1220       N  0.23193959  0.73142375  0.11452075    -0.88200
H1221       H  0.19070570  0.81894808  0.07262232     0.35900
H1222       H  0.22411929  0.83348808  0.05617784     0.41000
H1223       H  0.22208502  0.72549814  0.13389425     0.40600
H1224       H  0.25523122  0.73912178  0.11698469     0.35500
C1225       C  0.04823969  0.77362571  0.09236090    -0.26200
C1226       C  0.04979459  0.78462113  0.11901453    -0.14300
C1227       C  0.05134961  0.76790180  0.14110699     0.36300
C1228       C  0.05332840  0.74190594  0.13617466    -0.25700
C1229       C  0.05500884  0.73243395  0.10948188    -0.14900
C1230       C  0.05100644  0.74770668  0.08731032     0.37400
N1231       N  0.05157517  0.73810672  0.05988474    -0.89100
H1232       H  0.04652009  0.78625029  0.07537180     0.18500
H1233       H  0.05529062  0.72992395  0.15358253     0.18500
N1234       N  0.05120718  0.77689309  0.16877813    -0.88200
H1235       H  0.04955406  0.75254937  0.04598480     0.35900
H1236       H  0.03218617  0.71667412  0.05729623     0.41000
H1237       H  0.03168528  0.77865445  0.17182855     0.40600
H1238       H  0.07051309  0.79819554  0.17208079     0.35500
C1239       C  0.11733108  0.55531283  0.09831227    -0.26200
C1240       C  0.11266358  0.56636728  0.12304017    -0.14300
C1241       C  0.10432501  0.54791792  0.14634697     0.36300
C1242       C  0.09904377  0.51816150  0.14417029    -0.25700
C1243       C  0.10101478  0.50584766  0.11896513    -0.14900
C1244       C  0.11128548  0.52524268  0.09590573     0.37400
N1245       N  0.11426581  0.51484788  0.06956138    -0.89100
H1246       H  0.12347248  0.56937125  0.08022921     0.18500
H1247       H  0.09212939  0.50413324  0.16227609     0.18500
N1248       N  0.10014842  0.55916335  0.17196128    -0.88200
H1249       H  0.09307112  0.49663172  0.06374602     0.35900
H1250       H  0.11275091  0.02308722  0.06219191     0.41000
H1251       H  0.12135334  0.57736620  0.17782922     0.40600
H1252       H  0.09355739  0.54262870  0.18711381     0.35500
C1253       C  0.13814142  0.64743946  0.00338110    -0.26200
C1254       C  0.10802256  0.63153606  0.01342088    -0.14300
C1255       C  0.08742403  0.60285151  0.00169358     0.36300
C1256       C  0.09772934  0.59094171  0.98089295    -0.25700
C1257       C  0.12827073  0.60633908  0.97178419    -0.14900
C1258       C  0.14841933  0.63540901  0.98273886     0.37400
N1259       N  0.17923227  0.65286404  0.97273455    -0.89100
H1260       H  0.15418332  0.66913808  0.01248549     0.18500
H1261       H  0.08174282  0.56903396  0.97213379     0.18500
N1262       N  0.05637322  0.58453123  0.01085314    -0.88200
H1263       H  0.19120188  0.67350036  0.98321835     0.35900
H1264       H  0.17808143  0.65836398  0.95242605     0.41000
H1265       H  0.05073480  0.59539766  0.02590370     0.40600
H1266       H  0.05427079  0.56489591  0.01967082     0.35500
C1267       C  0.43917871  0.59521496  0.77540124    -0.26200
C1268       C  0.40961206  0.58091949  0.78650550    -0.14300
C1269       C  0.38443758  0.57373132  0.76945776     0.36300
C1270       C  0.38961157  0.58177376  0.74167617    -0.25700
C1271       C  0.41928913  0.59602599  0.73068112    -0.14900
C1272       C  0.44428332  0.60267037  0.74773182     0.37400
N1273       N  0.47482527  0.61719607  0.73688524    -0.89100
H1274       H  0.45852301  0.60076117  0.78851239     0.18500
H1275       H  0.37038863  0.57611345  0.72839057     0.18500
N1276       N  0.35400574  0.55926736  0.78048024    -0.88200
H1277       H  0.49059418  0.62026515  0.75207911     0.35900
H1278       H  0.48025577  0.63889801  0.73035543     0.41000
H1279       H  0.34827260  0.53725856  0.78626874     0.40600
H1280       H  0.33830887  0.55680629  0.76543831     0.35500
C1281       C  0.48351936  0.61736098  0.47960863    -0.26200
C1282       C  0.01460413  0.63496176  0.47737781    -0.14300
C1283       C  0.02937230  0.64446036  0.50280746     0.36300
C1284       C  0.01187198  0.63756061  0.52670780    -0.25700
C1285       C  0.47946727  0.61764823  0.52900958    -0.14900
C1286       C  0.46524957  0.60919287  0.50334451     0.37400
N1287       N  0.43248940  0.59338193  0.50131721    -0.89100
H1288       H  0.47229466  0.61151370  0.45999244     0.18500
H1289       H  0.02384255  0.64585838  0.54586465     0.18500
N1290       N  0.06195287  0.66225027  0.50504896    -0.88200
H1291       H  0.42565004  0.58857420  0.48095842     0.35900
H1292       H  0.42508380  0.60804285  0.50833735     0.41000
H1293       H  0.06962848  0.68203915  0.49355454     0.40600
H1294       H  0.07136501  0.64963875  0.49711055     0.35500
C1295       C  0.08842502  0.68921285  0.22957941    -0.26200
C1296       C  0.08817286  0.66379142  0.21792526    -0.14300
C1297       C  0.08281548  0.63926343  0.23484113     0.36300
C1298       C  0.07719549  0.64019989  0.26267859    -0.25700
C1299       C  0.07701453  0.66537023  0.27448466    -0.14900
C1300       C  0.08300038  0.69036860  0.25764567     0.37400
N1301       N  0.08259510  0.71637644  0.26871979    -0.89100
H1302       H  0.09217184  0.70800125  0.21662191     0.18500
H1303       H  0.07328871  0.62104943  0.27519497     0.18500
N1304       N  0.08345852  0.61341200  0.22392214    -0.88200
H1305       H  0.08459312  0.73129770  0.25318083     0.35900
H1306       H  0.10213783  0.72828942  0.28073949     0.41000
H1307       H  0.06231473  0.59404862  0.22780449     0.40600
H1308       H  0.10024474  0.61114268  0.23428594     0.35500
C1309       C  0.18315504  0.57004940  0.76357155    -0.26200
C1310       C  0.17861050  0.59259250  0.77594069    -0.14300
C1311       C  0.17484687  0.61282092  0.75875842     0.36300
C1312       C  0.17525167  0.60976262  0.73041648    -0.25700
C1313       C  0.17894996  0.58671855  0.71807596    -0.14900
C1314       C  0.18318967  0.56677094  0.73520881     0.37400
N1315       N  0.18778579  0.54305292  0.72467287    -0.89100
H1316       H  0.18635000  0.55430781  0.77603952     0.18500
H1317       H  0.17189070  0.62539001  0.71793560     0.18500
N1318       N  0.16984518  0.63631298  0.76919000    -0.88200
H1319       H  0.20659912  0.55263694  0.71155201     0.35900
H1320       H  0.16826248  0.52753684  0.71395069     0.41000
H1321       H  0.18864346  0.65118598  0.78104677     0.40600
H1322       H  0.15007498  0.62641617  0.78114034     0.35500
C1323       C  0.27061693  0.55572722  0.63159880    -0.26200
C1324       C  0.26012152  0.56160853  0.60723973    -0.14300
C1325       C  0.27876088  0.56887902  0.58365661     0.36300
C1326       C  0.30836754  0.57278081  0.58564261    -0.25700
C1327       C  0.31986757  0.56970227  0.61064735    -0.14900
C1328       C  0.30010776  0.55987863  0.63364255     0.37400
N1329       N  0.30923661  0.55389821  0.65943776    -0.89100
H1330       H  0.25648287  0.54952952  0.64971673     0.18500
H1331       H  0.32306110  0.57973973  0.56787233     0.18500
N1332       N  0.26782411  0.57285643  0.55786850    -0.88200
H1333       H  0.32674313  0.57415731  0.66761673     0.35900
H1334       H  0.31718078  0.53867440  0.65646909     0.41000
H1335       H  0.24904644  0.55191302  0.55237638     0.40600
H1336       H  0.28432616  0.57836208  0.54270171     0.35500
C1337       C  0.08508502  0.62484488  0.64980011    -0.26200
C1338       C  0.09448334  0.62285650  0.62329866    -0.14300
C1339       C  0.08257398  0.63086818  0.60093417     0.36300
C1340       C  0.05961803  0.63830242  0.60536573    -0.25700
C1341       C  0.04807212  0.63725546  0.63161602    -0.14900
C1342       C  0.06163649  0.63154076  0.65405957     0.37400
N1343       N  0.05095291  0.63162154  0.68107729    -0.89100
H1344       H  0.09462494  0.61934285  0.66714741     0.18500
H1345       H  0.04909206  0.64263053  0.58807259     0.18500
N1346       N  0.09326219  0.63063456  0.57383287    -0.88200
H1347       H  0.06945357  0.64773326  0.69253736     0.35900
H1348       H  0.04355540  0.61025193  0.68967954     0.41000
H1349       H  0.11638239  0.64735152  0.57301326     0.40600
H1350       H  0.08199622  0.63685606  0.55965371     0.35500
C1351       C  0.09185392  0.98296108  0.49556399    -0.26200
C1352       C  0.11229358  0.97539828  0.48336674    -0.14300
C1353       C  0.14361469  0.99240378  0.49047583     0.36300
C1354       C  0.15533757  0.51802898  0.50965199    -0.25700
C1355       C  0.13789016  0.53132789  0.51751859    -0.14900
C1356       C  0.10861908  0.52009014  0.50580201     0.37400
N1357       N  0.09041822  0.53366384  0.51258795    -0.89100
H1358       H  0.06799899  0.97064015  0.48964042     0.18500
H1359       H  0.17759211  0.52612858  0.51878906     0.18500
N1360       N  0.16552681  0.98655551  0.47720165    -0.88200
H1361       H  0.06941019  0.52262121  0.50246083     0.35900
H1362       H  0.10197469  0.55603018  0.50540594     0.41000
H1363       H  0.16141700  0.96526881  0.48371161     0.40600
H1364       H  0.18772370  0.00228135  0.48345994     0.35500
C1365       C  0.10860562  0.54695100  0.40518170    -0.26200
C1366       C  0.11079145  0.53592723  0.37943186    -0.14300
C1367       C  0.10798616  0.55011779  0.35583466     0.36300
C1368       C  0.10121823  0.57358443  0.35858824    -0.25700
C1369       C  0.09712407  0.58342786  0.38428908    -0.14900
C1370       C  0.10198588  0.57052887  0.40789557     0.37400
N1371       N  0.09839346  0.57934124  0.43477769    -0.89100
H1372       H  0.11009238  0.53575834  0.42341509     0.18500
H1373       H  0.09802753  0.58350074  0.34025775     0.18500
N1374       N  0.10738863  0.03599063  0.32993840    -0.88200
H1375       H  0.07638763  0.57622749  0.43659209     0.35900
H1376       H  0.11438991  0.60234246  0.43754879     0.41000
H1377       H  0.11247219  0.01849770  0.33034301     0.40600
H1378       H  0.12424297  0.05313573  0.31783452     0.35500
C1379       C  0.08554838  0.78173898  0.40024387    -0.26200
C1380       C  0.05682476  0.75832833  0.39151480    -0.14300
C1381       C  0.03208500  0.76367263  0.39021293     0.36300
C1382       C  0.03707766  0.79292664  0.39615372    -0.25700
C1383       C  0.06615112  0.81668003  0.40375384    -0.14900
C1384       C  0.09041156  0.81068014  0.40647732     0.37400
N1385       N  0.12062559  0.83395753  0.41391672    -0.89100
H1386       H  0.10457112  0.77764283  0.40178744     0.18500
H1387       H  0.01856628  0.79763830  0.39362768     0.18500
N1388       N  0.50170780  0.73870426  0.39027485    -0.88200
H1389       H  0.11963090  0.84232073  0.43313490     0.35900
H1390       H  0.12828473  0.85166290  0.39980330     0.41000
H1391       H  0.50225723  0.73244225  0.37008319     0.40600
H1392       H  0.48547285  0.74568836  0.39117299     0.35500
C1393       C  0.09327504  0.93876070  0.26851333    -0.26200
C1394       C  0.09714215  0.91808058  0.28433468    -0.14300
C1395       C  0.09588836  0.89245600  0.27175593     0.36300
C1396       C  0.09039725  0.88783650  0.24355482    -0.25700
C1397       C  0.08523064  0.90785270  0.22783962    -0.14900
C1398       C  0.08698199  0.93372277  0.24054504     0.37400
N1399       N  0.08248369  0.95506537  0.22514095    -0.89100
H1400       H  0.09381264  0.95825546  0.27812007     0.18500
H1401       H  0.08931603  0.86809595  0.23396435     0.18500
N1402       N  0.09981621  0.87104531  0.28779620    -0.88200
H1403       H  0.10209510  0.97646187  0.22702026     0.35900
H1404       H  0.06418990  0.95627038  0.23376114     0.41000
H1405       H  0.12207578  0.88239401  0.29553188     0.40600
H1406       H  0.09803369  0.85334896  0.27557658     0.35500
C1407       C  0.41057347  0.85398893  0.74419556    -0.26200
C1408       C  0.40857341  0.83115103  0.72675223    -0.14300
C1409       C  0.40939221  0.80599990  0.73807714     0.36300
C1410       C  0.41232569  0.80425372  0.76641271    -0.25700
C1411       C  0.41386176  0.82691011  0.78375237    -0.14900
C1412       C  0.41297364  0.85202642  0.77255031     0.37400
N1413       N  0.41488347  0.87565466  0.79006592    -0.89100
H1414       H  0.41009766  0.87339273  0.73568381     0.18500
H1415       H  0.41300206  0.78494486  0.77490708     0.18500
N1416       N  0.40798865  0.78252778  0.72086319    -0.88200
H1417       H  0.41373751  0.89241867  0.77870066     0.35900
H1418       H  0.43639700  0.88617904  0.79932664     0.41000
H1419       H  0.38919025  0.76185715  0.72685968     0.40600
H1420       H  0.42773948  0.78123634  0.72407183     0.35500
C1421       C  0.27077403  0.74327865  0.61002436    -0.26200
C1422       C  0.30035871  0.74755948  0.60882450    -0.14300
C1423       C  0.30462230  0.72337601  0.59997444     0.36300
C1424       C  0.27909957  0.69492733  0.59428551    -0.25700
C1425       C  0.24949945  0.68994278  0.59771941    -0.14900
C1426       C  0.24528857  0.71457665  0.60507797     0.37400
N1427       N  0.21545640  0.71101898  0.60791844    -0.89100
H1428       H  0.26737738  0.76186155  0.61620292     0.18500
H1429       H  0.28231549  0.67601100  0.58891659     0.18500
N1430       N  0.33487377  0.72762057  0.59732338    -0.88200
H1431       H  0.20388818  0.69590068  0.62378400     0.35900
H1432       H  0.20343203  0.70184843  0.58981602     0.41000
H1433       H  0.34603547  0.74344010  0.58180328     0.40600
H1434       H  0.33395570  0.70746473  0.59115854     0.35500
C1435       C  0.03023861  0.93421739  0.60106244    -0.26200
C1436       C  0.01546743  0.92043683  0.62547658    -0.14300
C1437       C  0.03263740  0.92918127  0.65008715     0.36300
C1438       C  0.06306640  0.95307354  0.64990876    -0.25700
C1439       C  0.07658963  0.96857025  0.62578013    -0.14900
C1440       C  0.06047876  0.95832667  0.60100081     0.37400
N1441       N  0.07441442  0.97382351  0.57602691    -0.89100
H1442       H  0.01758514  0.92748597  0.58209896     0.18500
H1443       H  0.07537946  0.96098075  0.66897280     0.18500
N1444       N  0.01988195  0.91461977  0.67556793    -0.88200
H1445       H  0.05941379  0.96371122  0.55966600     0.35900
H1446       H  0.09608570  0.47383854  0.56517624     0.41000
H1447       H  0.51636754  0.88886301  0.66195091     0.40600
H1448       H  0.00264381  0.91910094  0.68132348     0.35500
C1449       C  0.43413667  0.71708376  0.59264802    -0.26200
C1450       C  0.44491616  0.71245371  0.61755794    -0.14300
C1451       C  0.45346537  0.73432452  0.63822618     0.36300
C1452       C  0.45035962  0.75996288  0.63413461    -0.25700
C1453       C  0.43810980  0.76406421  0.60981299    -0.14900
C1454       C  0.43029785  0.74250883  0.58875349     0.37400
N1455       N  0.41652874  0.74516881  0.56425681    -0.89100
H1456       H  0.42713934  0.70008559  0.57670983     0.18500
H1457       H  0.45618679  0.77609444  0.65069724     0.18500
N1458       N  0.96318464  0.73318390  0.66473213    -0.88200
H1459       H  0.42989604  0.74554783  0.54783202     0.35900
H1460       H  0.39496506  0.72570645  0.56237693     0.41000
H1461       H  0.94559460  0.72979324  0.67805044     0.40600
H1462       H  0.98343756  0.75183038  0.67180025     0.35500
C1463       C  0.39528539  0.95168069  0.65835690    -0.26200
C1464       C  0.38407293  0.93253878  0.63558562    -0.14300
C1465       C  0.37769222  0.94362318  0.61154947     0.36300
C1466       C  0.38429682  0.97387116  0.61032248    -0.25700
C1467       C  0.39744916  0.99376414  0.63254234    -0.14900
C1468       C  0.40161574  0.98194221  0.65734435     0.37400
N1469       N  0.41300727  0.00074797  0.68126839    -0.89100
H1470       H  0.40015058  0.94322795  0.67680722     0.18500
H1471       H  0.38049384  0.98220560  0.59129732     0.18500
N1472       N  0.36661917  0.92543125  0.58740421    -0.88200
H1473       H  0.41561128  0.98880849  0.69736026     0.35900
H1474       H  0.39640308  0.00602638  0.68744539     0.41000
H1475       H  0.34555786  0.90621295  0.59179107     0.40600
H1476       H  0.38213004  0.91849906  0.58171795     0.35500
C1477       C  0.29571771  0.88122400  0.25949262    -0.26200
C1478       C  0.31788489  0.90579205  0.27466645    -0.14300
C1479       C  0.33753589  0.93340673  0.26130468     0.36300
C1480       C  0.33552262  0.93562826  0.23299363    -0.25700
C1481       C  0.31449041  0.91054799  0.21755981    -0.14900
C1482       C  0.29409987  0.88325501  0.23106802     0.37400
N1483       N  0.27169066  0.85754957  0.21600365    -0.89100
H1484       H  0.28021788  0.86004881  0.26960404     0.18500
H1485       H  0.35131175  0.95674884  0.22294843     0.18500
N1486       N  0.35942281  0.95936281  0.27647411    -0.88200
H1487       H  0.25010454  0.85178355  0.22355790     0.35900
H1488       H  0.27522118  0.83928392  0.21964965     0.41000
H1489       H  0.35502309  0.97712234  0.27315230     0.40600
H1490       H  0.38117413  0.96600686  0.26878104     0.35500
C1491       C  0.38601886  0.87648364  0.47509506    -0.26200
C1492       C  0.36423918  0.88613589  0.47561946    -0.14300
C1493       C  0.35229698  0.88805926  0.50099309     0.36300
C1494       C  0.36120329  0.87929039  0.52474028    -0.25700
C1495       C  0.38234666  0.86873369  0.52433893    -0.14900
C1496       C  0.39535642  0.86812796  0.49908743     0.37400
N1497       N  0.41743078  0.85840652  0.49747174    -0.89100
H1498       H  0.39552779  0.87491086  0.45578306     0.18500
H1499       H  0.35089218  0.88037929  0.54374033     0.18500
N1500       N  0.33000594  0.89746884  0.50320853    -0.88200
H1501       H  0.43740659  0.87607745  0.48892771     0.35900
H1502       H  0.40902568  0.83979251  0.48422734     0.41000
H1503       H  0.31119487  0.88314255  0.49111314     0.40600
H1504       H  0.33962487  0.91966508  0.49581776     0.35500
C1505       C  0.41185853  0.53165040  0.39386564    -0.26200
C1506       C  0.40759733  0.51065661  0.37319425    -0.14300
C1507       C  0.42593666  0.52153414  0.34941616     0.36300
C1508       C  0.44930072  0.55196517  0.34786582    -0.25700
C1509       C  0.45493873  0.57234207  0.36930834    -0.14900
C1510       C  0.43526055  0.56237611  0.39214816     0.37400
N1511       N  0.93946119  0.58628285  0.41383701    -0.89100
H1512       H  0.40159124  0.02382682  0.41693862     0.18500
H1513       H  0.46415646  0.55937774  0.33017843     0.18500
N1514       N  0.42173218  0.50171456  0.32696465    -0.88200
H1515       H  0.92546940  0.57496164  0.43047361     0.35900
H1516       H  0.93442794  0.60316354  0.40835014     0.41000
H1517       H  0.44217741  0.50169075  0.32381448     0.40600
H1518       H  0.41721833  0.51058599  0.30954326     0.35500
C1519       C  0.21799149  0.78389884  0.41114283    -0.26200
C1520       C  0.23449513  0.78972207  0.38669000    -0.14300
C1521       C  0.22165229  0.76923095  0.36492145     0.36300
C1522       C  0.19220514  0.74386427  0.36743617    -0.25700
C1523       C  0.17481524  0.73856860  0.39136666    -0.14900
C1524       C  0.18819625  0.75849063  0.41372822     0.37400
N1525       N  0.17080184  0.75420709  0.43814651    -0.89100
H1526       H  0.22777640  0.80003548  0.42776230     0.18500
H1527       H  0.18233816  0.72887651  0.35004586     0.18500
N1528       N  0.23817047  0.77468094  0.33988017    -0.88200
H1529       H  0.18334215  0.77174806  0.45202843     0.35900
H1530       H  0.16734067  0.73418967  0.44732070     0.41000
H1531       H  0.22502054  0.77632934  0.32429728     0.40600
H1532       H  0.24063995  0.75582127  0.33581965     0.35500
C1533       C  0.42599672  0.87233923  0.39250366    -0.26200
C1534       C  0.41646843  0.87522413  0.36641391    -0.14300
C1535       C  0.43643555  0.88163167  0.34409262     0.36300
C1536       C  0.46593508  0.88649647  0.34855083    -0.25700
C1537       C  0.47630929  0.88641534  0.37506136    -0.14900
C1538       C  0.45590909  0.87848685  0.39707342     0.37400
N1539       N  0.46573312  0.87736684  0.42416842    -0.89100
H1540       H  0.41091339  0.86758835  0.40978591     0.18500
H1541       H  0.48146835  0.89234900  0.33145010     0.18500
N1542       N  0.42751227  0.88375464  0.31688406    -0.88200
H1543       H  0.45145286  0.85552356  0.43183930     0.35900
H1544       H  0.46276207  0.89270264  0.43619772     0.41000
H1545       H  0.42274255  0.90148634  0.31598580     0.40600
H1546       H  0.40754424  0.86341073  0.31223556     0.35500
C1547       C  0.24569956  0.94442333  0.37248878    -0.26200
C1548       C  0.25250043  0.93341075  0.39615089    -0.14300
C1549       C  0.23512582  0.92912478  0.41987571     0.36300
C1550       C  0.21045562  0.93461528  0.41897683    -0.25700
C1551       C  0.20238013  0.94372167  0.39471291    -0.14900
C1552       C  0.22088867  0.94950405  0.37152008     0.37400
N1553       N  0.21360199  0.95875026  0.34645053    -0.89100
H1554       H  0.25898231  0.94783249  0.35413180     0.18500
H1555       H  0.19651760  0.93028806  0.43703100     0.18500
N1556       N  0.24138630  0.91759186  0.44424008    -0.88200
H1557       H  0.20988547  0.94245459  0.33160354     0.35900
H1558       H  0.23257089  0.97933184  0.34054013     0.41000
H1559       H  0.23681124  0.89550071  0.44011961     0.40600
H1560       H  0.22648157  0.91576490  0.45987109     0.35500
Zn1561     Zn  0.83330225  0.36415580  0.39366136     1.49700
Zn1562     Zn  0.79273709  0.38272033  0.35962484     1.49400
Zn1563     Zn  0.83457508  0.42685385  0.40889922     1.49100
Zn1564     Zn  0.86343324  0.41904950  0.35309148     1.49500
O1565       O  0.83086189  0.39853752  0.37923511    -1.84000
O1566       O  0.79162231  0.32538996  0.39528310    -0.74600
O1567       O  0.77286044  0.40605086  0.37167613    -0.74500
O1568       O  0.84863809  0.41480652  0.44504623    -0.74000
O1569       O  0.76416323  0.33870168  0.36942150    -0.74700
O1570       O  0.84941307  0.37344521  0.43129666    -0.74300
O1571       O  0.79435192  0.42854873  0.41102248    -0.74800
O1572       O  0.88401997  0.46351317  0.35889861    -0.74200
O1573       O  0.79815519  0.38813414  0.31849547    -0.75000
O1574       O  0.86628760  0.47073793  0.39780446    -0.74400
O1575       O  0.84865314  0.41401160  0.31475977    -0.74800
O1576       O  0.89381213  0.40502988  0.35682806    -0.74800
O1577       O  0.86604633  0.35902024  0.37517289    -0.74500
C1578       C  0.76639818  0.31931896  0.38420232     0.77200
C1579       C  0.77419517  0.42182583  0.39236422     0.77700
C1580       C  0.85445818  0.39326117  0.44940461     0.76700
C1581       C  0.88303986  0.48125428  0.37658226     0.77100
C1582       C  0.82227391  0.40222991  0.30408357     0.78200
C1583       C  0.89101520  0.38008144  0.36520196     0.77300
Zn1584     Zn  0.89109964  0.30826579  0.64080417     1.49700
Zn1585     Zn  0.93054660  0.34803776  0.59032591     1.49400
Zn1586     Zn  0.86823395  0.34693524  0.60967154     1.49100
Zn1587     Zn  0.92613824  0.37795408  0.64779207     1.49500
O1588       O  0.90438603  0.34568860  0.62162641    -1.84000
O1589       O  0.91665464  0.29105415  0.62994775    -0.74600
O1590       O  0.91486534  0.35834106  0.55434973    -0.74500
O1591       O  0.82950585  0.30452407  0.61058283    -0.74000
O1592       O  0.93508952  0.30930411  0.58883836    -0.74700
O1593       O  0.84893139  0.27780931  0.62872995    -0.74300
O1594       O  0.87381008  0.35806518  0.57068708    -0.74800
O1595       O  0.91220843  0.40861129  0.64514279    -0.74200
O1596       O  0.97398170  0.38234791  0.59832686    -0.75000
O1597       O  0.86641153  0.38335627  0.62553727    -0.74400
O1598       O  0.97053715  0.39923435  0.63923690    -0.74800
O1599       O  0.92217135  0.36271698  0.68624129    -0.74800
O1600       O  0.89574561  0.31258125  0.68165392    -0.74500
C1601       C  0.93104184  0.29129298  0.60867927     0.77200
C1602       C  0.89191580  0.36234718  0.55107492     0.77700
C1603       C  0.82732773  0.27905692  0.61667871     0.76700
C1604       C  0.88814632  0.40763533  0.63606584     0.77100
C1605       C  0.98637183  0.39943449  0.61905142     0.78200
C1606       C  0.91016224  0.33618314  0.69647020     0.77300
Zn1607     Zn  0.62725594  0.45922335  0.36455986     1.49700
Zn1608     Zn  0.57058745  0.44506991  0.40316180     1.49400
Zn1609     Zn  0.56606888  0.39476854  0.36541626     1.49100
Zn1610     Zn  0.60986301  0.41620946  0.41759141     1.49500
O1611       O  0.59415114  0.42884140  0.38726919    -1.84000
O1612       O  0.63033617  0.00007003  0.37242664    -0.74600
O1613       O  0.52496596  0.41787979  0.39924854    -0.74500
O1614       O  0.57933471  0.39974327  0.32687662    -0.74000
O1615       O  0.58202688  0.48398311  0.38539918    -0.74700
O1616       O  0.61778819  0.44738856  0.32393564    -0.74300
O1617       O  0.52367132  0.38856461  0.36511645    -0.74800
O1618       O  0.58627970  0.36939138  0.42025115    -0.74200
O1619       O  0.58358525  0.45945586  0.44132262    -0.75000
O1620       O  0.56315858  0.35718527  0.37977545    -0.74400
O1621       O  0.61425144  0.44176406  0.45189275    -0.74800
O1622       O  0.65268449  0.42693333  0.40891123    -0.74800
O1623       O  0.66705483  0.45897580  0.37395914    -0.74500
C1624       C  0.60840913  0.00542929  0.37632988     0.77200
C1625       C  0.51033542  0.39806954  0.38091570     0.77700
C1626       C  0.59881154  0.42201818  0.31282123     0.76700
C1627       C  0.57105093  0.34976421  0.40169331     0.77100
C1628       C  0.60300578  0.45879791  0.45728189     0.78200
C1629       C  0.67273898  0.44397146  0.39164016     0.77300
Zn1630     Zn  0.62660427  0.06433644  0.59693806     1.49700
Zn1631     Zn  0.66942486  0.04862824  0.63355949     1.49400
Zn1632     Zn  0.69529935  0.09397192  0.58203000     1.49100
Zn1633     Zn  0.67350443  0.11346294  0.63578157     1.49500
O1634       O  0.66679543  0.08002447  0.61248875    -1.84000
O1635       O  0.60025216  0.51890842  0.61294408    -0.74600
O1636       O  0.70939941  0.04883632  0.62256172    -0.74500
O1637       O  0.67339112  0.06965129  0.54740882    -0.74000
O1638       O  0.63113023  0.50394744  0.63092885    -0.74700
O1639       O  0.62482290  0.05242277  0.55798462    -0.74300
O1640       O  0.72732608  0.08268338  0.58900024    -0.74800
O1641       O  0.70906529  0.15171685  0.62224865    -0.74200
O1642       O  0.67150855  0.05875434  0.67462909    -0.75000
O1643       O  0.71898206  0.14096905  0.58064448    -0.74400
O1644       O  0.67944252  0.10575588  0.67446315    -0.74800
O1645       O  0.63775812  0.12027654  0.63664727    -0.74800
O1646       O  0.60810134  0.09085210  0.60321736    -0.74500
C1647       C  0.60487646  0.49832205  0.62241062     0.77200
C1648       C  0.73010026  0.06446602  0.60486009     0.77700
C1649       C  0.64492930  0.05344237  0.54181056     0.76700
C1650       C  0.72372179  0.15997276  0.59988868     0.77100
C1651       C  0.67618937  0.08268193  0.68743480     0.78200
C1652       C  0.61420521  0.11064345  0.62173535     0.77300
Zn1653     Zn  0.58780703  0.16003276  0.41475221     1.49700
Zn1654     Zn  0.55117408  0.12964162  0.35931842     1.49400
Zn1655     Zn  0.52678630  0.16294257  0.39666473     1.49100
Zn1656     Zn  0.58744482  0.19983908  0.36353582     1.49500
O1657       O  0.56360871  0.16306885  0.38418015    -1.84000
O1658       O  0.59656884  0.12511067  0.40661779    -0.74600
O1659       O  0.50640128  0.10035464  0.36324355    -0.74500
O1660       O  0.52157791  0.15224429  0.43561919    -0.74000
O1661       O  0.57357506  0.10753119  0.36688672    -0.74700
O1662       O  0.56160672  0.14982814  0.45092929    -0.74300
O1663       O  0.98716444  0.12563123  0.37758433    -0.74800
O1664       O  0.57635841  0.23101960  0.37490965    -0.74200
O1665       O  0.56051859  0.14337227  0.32064944    -0.75000
O1666       O  0.53047639  0.20481963  0.39419630    -0.74400
O1667       O  0.58511411  0.19358827  0.32227356    -0.74800
O1668       O  0.63070386  0.21713573  0.37406518    -0.74800
O1669       O  0.63152545  0.19896430  0.41508195    -0.74500
C1670       C  0.59020881  0.10729723  0.38615921     0.77200
C1671       C  0.98383561  0.10061171  0.36829786     0.77700
C1672       C  0.53501513  0.14677074  0.45469688     0.76700
C1673       C  0.55343667  0.22998448  0.38675710     0.77100
C1674       C  0.57429116  0.16895613  0.30863545     0.78200
C1675       C  0.64529556  0.21695931  0.39506536     0.77300
Zn1676     Zn  0.94752519  0.09140757  0.64963544     1.49700
Zn1677     Zn  0.96995590  0.14438442  0.60769159     1.49400
Zn1678     Zn  0.90960298  0.07905545  0.59363032     1.49100
Zn1679     Zn  0.90900743  0.12349204  0.64102425     1.49500
O1680       O  0.93347286  0.10924474  0.62255618    -1.84000
O1681       O  0.99204461  0.10577098  0.64450521    -0.74600
O1682       O  0.97517509  0.13582321  0.56966787    -0.74500
O1683       O  0.90076289  0.03658423  0.60604077    -0.74000
O1684       O  0.50892745  0.14876989  0.62688454    -0.74700
O1685       O  0.92506667  0.04632535  0.64553340    -0.74300
O1686       O  0.93557345  0.09126856  0.55744205    -0.74800
O1687       O  0.86616136  0.09990255  0.62741538    -0.74200
O1688       O  0.96700730  0.18272789  0.60774918    -0.75000
O1689       O  0.86628519  0.07453062  0.59039547    -0.74400
O1690       O  0.92480928  0.16806532  0.63232036    -0.74800
O1691       O  0.90670935  0.11630856  0.68191212    -0.74800
O1692       O  0.93898052  0.09910560  0.68781828    -0.74500
C1693       C  0.51305916  0.12874340  0.63848560     0.77200
C1694       C  0.96173161  0.11471399  0.55231417     0.77700
C1695       C  0.90772102  0.02742532  0.62767347     0.76700
C1696       C  0.85223161  0.08235474  0.60749307     0.77100
C1697       C  0.94723052  0.18811087  0.61844450     0.78200
C1698       C  0.92052822  0.10695757  0.69729273     0.77300
Zn1699     Zn  0.57292439  0.12341148  0.14114704     1.49700
Zn1700     Zn  0.56469845  0.15202525  0.08519052     1.49400
Zn1701     Zn  0.60473869  0.19283216  0.13570056     1.49100
Zn1702     Zn  0.62911353  0.15616537  0.10252497     1.49500
O1703       O  0.59242447  0.15592768  0.11547467    -1.84000
O1704       O  0.52872290  0.10042195  0.13375686    -0.74600
O1705       O  0.56122249  0.19137185  0.08371682    -0.74500
O1706       O  0.60099535  0.18790103  0.17684352    -0.74000
O1707       O  0.52146179  0.11696212  0.09423356    -0.74700
O1708       O  0.57751579  0.13784631  0.17973910    -0.74300
O1709       O  0.58030827  0.21116973  0.12450893    -0.74800
O1710       O  0.66694007  0.19761118  0.10565427    -0.74200
O1711       O  0.58050727  0.14212233  0.04894061    -0.75000
O1712       O  0.64680298  0.22364746  0.12416465    -0.74400
O1713       O  0.62469222  0.14769546  0.06330300    -0.74800
O1714       O  0.63315486  0.12065381  0.11615819    -0.74800
O1715       O  0.58860961  0.09455415  0.13750099    -0.74500
C1716       C  0.51108719  0.09929206  0.11484751     0.77200
C1717       C  0.56700436  0.21104312  0.10260020     0.77700
C1718       C  0.58856350  0.16374020  0.19110919     0.76700
C1719       C  0.66877794  0.22264788  0.11256877     0.77100
C1720       C  0.60527177  0.14153808  0.04453547     0.78200
C1721       C  0.61283184  0.09648035  0.12772992     0.77300
Zn1722     Zn  0.66886977  0.12167360  0.85888599     1.49700
Zn1723     Zn  0.66876090  0.05877024  0.85935535     1.49400
Zn1724     Zn  0.69056711  0.10074491  0.91221916     1.49100
Zn1725     Zn  0.62210881  0.06612692  0.89530972     1.49500
O1726       O  0.66314867  0.08730233  0.88110911    -1.84000
O1727       O  0.67139191  0.11230670  0.81833540    -0.74600
O1728       O  0.70505031  0.05719648  0.87279443    -0.74500
O1729       O  0.72328474  0.14380502  0.90612625    -0.74000
O1730       O  0.67372993  0.06992226  0.81989611    -0.74700
O1731       O  0.70865117  0.16013959  0.87046586    -0.74300
O1732       O  0.71320688  0.07667242  0.91455845    -0.74800
O1733       O  0.62035237  0.07956490  0.93349635    -0.74200
O1734       O  0.63300831  0.01629343  0.86173340    -0.75000
O1735       O  0.66879993  0.10374374  0.94646721    -0.74400
O1736       O  0.60230868  0.02046384  0.89168114    -0.74800
O1737       O  0.59697345  0.07985354  0.87585528    -0.74800
O1738       O  0.63189617  0.12748379  0.86506032    -0.74500
C1739       C  0.67349834  0.09107147  0.80627905     0.77200
C1740       C  0.71921672  0.06328158  0.89542588     0.77700
C1741       C  0.72762004  0.16488982  0.88969490     0.76700
C1742       C  0.64084555  0.09586431  0.95075359     0.77100
C1743       C  0.60879840  0.00444213  0.87601905     0.78200
C1744       C  0.60435714  0.10713379  0.87041284     0.77300
Zn1745     Zn  0.58761120  0.37997271  0.14247011     1.49700
Zn1746     Zn  0.55033171  0.41376088  0.14776285     1.49400
Zn1747     Zn  0.58634552  0.41993041  0.09191742     1.49100
Zn1748     Zn  0.52683689  0.35597756  0.11033096     1.49500
O1749       O  0.56312408  0.39286837  0.12274650    -1.84000
O1750       O  0.58701849  0.38587550  0.18350324    -0.74600
O1751       O  0.57053752  0.45778522  0.13861086    -0.74500
O1752       O  0.62985548  0.42520633  0.09065703    -0.74000
O1753       O  0.56332492  0.41264493  0.18595097    -0.74700
O1754       O  0.63092353  0.40598717  0.13109920    -0.74300
O1755       O  0.59443804  0.46298742  0.09946173    -0.74800
O1756       O  0.52138464  0.36098630  0.07160374    -0.74200
O1757       O  0.50496226  0.39653035  0.14541389    -0.75000
O1758       O  0.56045622  0.40402360  0.05614405    -0.74400
O1759       O  0.98765442  0.35264830  0.12809605    -0.74800
O1760       O  0.53039588  0.31800015  0.11189333    -0.74800
O1761       O  0.57590030  0.33692434  0.13138255    -0.74500
C1762       C  0.57800976  0.40133240  0.19715677     0.77200
C1763       C  0.58727511  0.47446376  0.11929133     0.77700
C1764       C  0.64447373  0.42084120  0.10978658     0.76700
C1765       C  0.53456891  0.37976539  0.05249226     0.77100
C1766       C  0.98497312  0.37422382  0.13855963     0.78200
C1767       C  0.55299215  0.31521851  0.11924903     0.77300
Zn1768     Zn  0.89490459  0.32941451  0.86544403     1.49700
Zn1769     Zn  0.91101322  0.30379338  0.91710571     1.49400
Zn1770     Zn  0.95557404  0.32393414  0.86372654     1.49100
Zn1771     Zn  0.94965216  0.37255380  0.90181813     1.49500
O1772       O  0.92815006  0.33209039  0.88683525    -1.84000
O1773       O  0.85608333  0.29219650  0.87465580    -0.74600
O1774       O  0.92245553  0.27200954  0.91215928    -0.74500
O1775       O  0.94389256  0.32207563  0.82331763    -0.74000
O1776       O  0.86365080  0.27959089  0.91594549    -0.74700
O1777       O  0.90374879  0.32876484  0.82630838    -0.74300
O1778       O  0.95303965  0.28408156  0.87621773    -0.74800
O1779       O  0.99091557  0.39352489  0.88686306    -0.74200
O1780       O  0.93307423  0.32423189  0.95277714    -0.75000
O1781       O  0.49502527  0.36003958  0.86931071    -0.74400
O1782       O  0.95914645  0.37309285  0.94177027    -0.74800
O1783       O  0.93098519  0.39787752  0.89121228    -0.74800
O1784       O  0.88914357  0.36552020  0.86852728    -0.74500
C1785       C  0.84607100  0.27535998  0.89558285     0.77200
C1786       C  0.93878117  0.26637580  0.89615456     0.77700
C1787       C  0.92336595  0.32612122  0.81224270     0.76700
C1788       C  0.50328746  0.38676642  0.87797614     0.77100
C1789       C  0.95296943  0.35175769  0.95858554     0.78200
C1790       C  0.90720668  0.39198767  0.87761993     0.77300
Zn1791     Zn  0.79864324  0.40860513  0.08368461     1.49700
Zn1792     Zn  0.86718166  0.43498651  0.09488982     1.49400
Zn1793     Zn  0.82706499  0.45186967  0.13579844     1.49100
Zn1794     Zn  0.82205070  0.38663489  0.13491855     1.49500
O1795       O  0.82837545  0.42070404  0.11288525    -1.84000
O1796       O  0.81935256  0.43281748  0.04906235    -0.74600
O1797       O  0.89393968  0.47720466  0.10619991    -0.74500
O1798       O  0.78771952  0.45353726  0.12745232    -0.74000
O1799       O  0.86626343  0.44133233  0.05497808    -0.74700
O1800       O  0.76801318  0.42087028  0.09309338    -0.74300
O1801       O  0.86651991  0.99249027  0.13347263    -0.74800
O1802       O  0.81391987  0.39194646  0.17365310    -0.74200
O1803       O  0.88855606  0.41160616  0.10366637    -0.75000
O1804       O  0.82552235  0.44028752  0.17601009    -0.74400
O1805       O  0.85863921  0.38073339  0.13614752    -0.74800
O1806       O  0.78698989  0.34927217  0.11999107    -0.74800
O1807       O  0.77422219  0.36218833  0.08085289    -0.74500
C1808       C  0.84702456  0.44461219  0.04104367     0.77200
C1809       C  0.89327821  0.99793536  0.12684226     0.77700
C1810       C  0.76632787  0.43884718  0.11014093     0.76700
C1811       C  0.81845655  0.41503109  0.18745771     0.77100
C1812       C  0.88289744  0.39179918  0.12195321     0.78200
C1813       C  0.77067599  0.34224950  0.09858414     0.77300
Zn1814     Zn  0.89103854  0.08105155  0.91810990     1.49700
Zn1815     Zn  0.87372513  0.04157752  0.86206907     1.49400
Zn1816     Zn  0.93572061  0.10522720  0.86677080     1.49100
Zn1817     Zn  0.92927479  0.05197509  0.90071772     1.49500
O1818       O  0.90669914  0.06988354  0.88661213    -1.84000
O1819       O  0.84771136  0.06858330  0.91033246    -0.74600
O1820       O  0.88203267  0.05802076  0.82268951    -0.74500
O1821       O  0.93691721  0.14147148  0.88244153    -0.74000
O1822       O  0.83324868  0.03786127  0.87445151    -0.74700
O1823       O  0.91284542  0.12774254  0.92230246    -0.74300
O1824       O  0.92419679  0.10255351  0.82801983    -0.74800
O1825       O  0.97509357  0.07903664  0.89834706    -0.74200
O1826       O  0.87529769  0.50237984  0.86069891    -0.75000
O1827       O  0.97832989  0.11191607  0.86708542    -0.74400
O1828       O  0.92070559  0.51709930  0.87966665    -0.74800
O1829       O  0.91464659  0.03395291  0.93793441    -0.74800
O1830       O  0.88804016  0.05533721  0.95167210    -0.74500
C1831       C  0.82724489  0.05138224  0.89339579     0.77200
C1832       C  0.90329079  0.08296315  0.81278774     0.77700
C1833       C  0.92809548  0.14807556  0.90434232     0.76700
C1834       C  0.99071301  0.10043485  0.88160152     0.77100
C1835       C  0.89694443  0.49746142  0.86717017     0.78200
C1836       C  0.89722782  0.03630092  0.95529884     0.77300
C1837       C  0.84170755  0.47974981  0.00878388    -0.26200
C1838       C  0.85819104  0.46555659  0.01702056    -0.14300
C1839       C  0.88695298  0.47504429  0.00451607     0.36300
C1840       C  0.90316894  0.00119778  0.98724685    -0.25700
C1841       C  0.88621832  0.01487149  0.97901495    -0.14900
C1842       C  0.85763970  0.00535633  0.99169751     0.37400
N1843       N  0.83891280  0.01773092  0.98320243    -0.89100
H1844       H  0.81984649  0.47306261  0.01820644     0.18500
H1845       H  0.92479182  0.00760164  0.97745568     0.18500
N1846       N  0.90525863  0.46164344  0.01089455    -0.88200
H1847       H  0.81904973  0.00895045  0.99500139     0.35900
H1848       H  0.83181761  0.01039124  0.96324423     0.41000
H1849       H  0.89189574  0.43802875  0.00884714     0.40600
H1850       H  0.91334169  0.46731879  0.03083234     0.35500
C1851       C  0.92204102  0.46864251  0.85430702    -0.26200
C1852       C  0.89504483  0.46798259  0.86224614    -0.14300
C1853       C  0.87010186  0.44056907  0.87183157     0.36300
C1854       C  0.87375375  0.41507648  0.87554254    -0.25700
C1855       C  0.90201329  0.41708838  0.87040337    -0.14900
C1856       C  0.92574003  0.44342869  0.85817990     0.37400
N1857       N  0.95375612  0.44463274  0.85032936    -0.89100
H1858       H  0.94104997  0.48962225  0.84663246     0.18500
H1859       H  0.85524738  0.39431107  0.88403499     0.18500
N1860       N  0.84200500  0.43928120  0.87939086    -0.88200
H1861       H  0.96898324  0.46574726  0.84179472     0.35900
H1862       H  0.94848893  0.42845957  0.83495557     0.41000
H1863       H  0.84646814  0.45347540  0.89627630     0.40600
H1864       H  0.82588700  0.41733878  0.88570163     0.35500
C1865       C  0.95701516  0.20225269  0.88999269    -0.26200
C1866       C  0.93459710  0.17995685  0.90711886    -0.14300
C1867       C  0.91635820  0.18777290  0.92313570     0.36300
C1868       C  0.91942986  0.21668710  0.92007667    -0.25700
C1869       C  0.93992272  0.23797984  0.90105658    -0.14900
C1870       C  0.95992959  0.23106086  0.88679127     0.37400
N1871       N  0.48130228  0.25350307  0.86551797    -0.89100
H1872       H  0.97175152  0.19680690  0.87815547     0.18500
H1873       H  0.90445861  0.22192408  0.93176269     0.18500
N1874       N  0.89376998  0.16605344  0.94144231    -0.88200
H1875       H  0.49247981  0.24409782  0.85479832     0.35900
H1876       H  0.49826648  0.27232516  0.87603702     0.41000
H1877       H  0.87651781  0.14893335  0.92962271     0.40600
H1878       H  0.88337769  0.17598162  0.95258933     0.35500
C1879       C  0.97520989  0.33519415  0.99562623    -0.26200
C1880       C  0.97200552  0.35861949  0.98383222    -0.14300
C1881       C  0.99052241  0.38857284  0.99395352     0.36300
C1882       C  0.51200521  0.39536771  0.01517832    -0.25700
C1883       C  0.51721423  0.37310804  0.02659220    -0.14900
C1884       C  0.50068692  0.34300689  0.01618920     0.37400
N1885       N  0.50619298  0.31945289  0.02545861    -0.89100
H1886       H  0.96219392  0.31223120  0.98770989     0.18500
H1887       H  0.52398262  0.41834684  0.02319681     0.18500
N1888       N  0.98812516  0.41328134  0.98277945    -0.88200
H1889       H  0.99080670  0.31139844  0.04727812     0.35900
H1890       H  0.52957922  0.32718115  0.02380725     0.41000
H1891       H  0.00966510  0.42949951  0.97549975     0.40600
H1892       H  0.47898293  0.42065869  0.99966411     0.35500
C1893       C  0.92041563  0.38978719  0.15294252    -0.26200
C1894       C  0.90568438  0.38258298  0.12757088    -0.14300
C1895       C  0.91478248  0.36921257  0.10721588     0.36300
C1896       C  0.93913064  0.36404142  0.11238815    -0.25700
C1897       C  0.95519555  0.37299709  0.13715822    -0.14900
C1898       C  0.94551503  0.38571639  0.15767788     0.37400
N1899       N  0.96157919  0.39520390  0.18304086    -0.89100
H1900       H  0.91351755  0.40021037  0.16859846     0.18500
H1901       H  0.94691982  0.35488406  0.09631762     0.18500
N1902       N  0.89985229  0.36181401  0.08114838    -0.88200
H1903       H  0.94603310  0.38354349  0.19869247     0.35900
H1904       H  0.96946213  0.41841901  0.18554224     0.41000
H1905       H  0.87714006  0.34482593  0.08424724     0.40600
H1906       H  0.90958797  0.35256923  0.06825231     0.35500
C1907       C  0.69510811  0.44104019  0.13218142    -0.26200
C1908       C  0.67784756  0.43211478  0.10796814    -0.14300
C1909       C  0.69178154  0.43013334  0.08377963     0.36300
C1910       C  0.72172432  0.43485902  0.08480569    -0.25700
C1911       C  0.73807532  0.44124531  0.10951333    -0.14900
C1912       C  0.72481234  0.44557537  0.13325464     0.37400
N1913       N  0.73999601  0.45270501  0.15908176    -0.89100
H1914       H  0.68481383  0.44306636  0.15087580     0.18500
H1915       H  0.73177675  0.43196686  0.06634436     0.18500
N1916       N  0.67499664  0.42160824  0.05862301    -0.88200
H1917       H  0.76042219  0.47340292  0.15742458     0.35900
H1918       H  0.74488677  0.43561263  0.16412602     0.50600
H1919       H  0.65703724  0.39923446  0.06067248     0.40600
H1920       H  0.67809098  0.90845159  0.04586540     0.35500
C1921       C  0.76688751  0.21494970  0.87051624    -0.26200
C1922       C  0.75590483  0.19512693  0.89278087    -0.14300
C1923       C  0.77314716  0.20384206  0.91719948     0.36300
C1924       C  0.80184890  0.23060668  0.91809713    -0.25700
C1925       C  0.81380690  0.24949094  0.89521592    -0.14900
C1926       C  0.79535868  0.24187983  0.87145632     0.37400
N1927       N  0.80558590  0.26087820  0.84778925    -0.89100
H1928       H  0.75384145  0.20905883  0.85177532     0.18500
H1929       H  0.81506167  0.23621806  0.93672098     0.18500
N1930       N  0.76166606  0.18564512  0.94125468    -0.88200
H1931       H  0.78949688  0.26741352  0.84328583     0.35900
H1932       H  0.80628351  0.24800805  0.83144365     0.41000
H1933       H  0.76028336  0.19913845  0.95668269     0.40600
H1934       H  0.77741816  0.17921134  0.94730733     0.35500
C1935       C  0.57330167  0.45588716  0.90181422    -0.26200
C1936       C  0.58478894  0.47074031  0.87697140    -0.14300
C1937       C  0.57324334  0.45443581  0.85218614     0.36300
C1938       C  0.54879141  0.42442929  0.85313022    -0.25700
C1939       C  0.53536988  0.41089336  0.87795299    -0.14900
C1940       C  0.54898634  0.42603049  0.90266465     0.37400
N1941       N  0.53742618  0.41249306  0.92890529    -0.89100
H1942       H  0.58247874  0.46804747  0.92079454     0.18500
H1943       H  0.04462223  0.41193728  0.83163282     0.18500
N1944       N  0.58423196  0.97360881  0.82353024    -0.88200
H1945       H  0.55523810  0.41209530  0.93931952     0.35900
H1946       H  0.52024912  0.38977752  0.92701378     0.41000
H1947       H  0.60731899  0.98066300  0.82066013     0.40600
H1948       H  0.56552571  0.46783428  0.81584056     0.35500
C1949       C  0.79098789  0.06246320  0.91842421    -0.26200
C1950       C  0.79658207  0.04884166  0.89574579    -0.14300
C1951       C  0.77392720  0.03603689  0.87521683     0.36300
C1952       C  0.74803951  0.03923261  0.87686900    -0.25700
C1953       C  0.74399745  0.05557045  0.89819444    -0.14900
C1954       C  0.76546696  0.06628035  0.91976598     0.37400
N1955       N  0.76292423  0.08217549  0.94284064    -0.89100
H1956       H  0.80741110  0.07173517  0.93489948     0.18500
H1957       H  0.73163564  0.02997839  0.86037979     0.18500
N1958       N  0.78218616  0.53052500  0.84527590    -0.88200
H1959       H  0.74200836  0.06822400  0.95251017     0.35900
H1960       H  0.76388012  0.10213441  0.93621788     0.41000
H1961       H  0.78349928  0.51088800  0.84857269     0.40600
H1962       H  0.80297181  0.54765250  0.83751116     0.35500
C1963       C  0.53938864  0.11093866  0.90235613    -0.26200
C1964       C  0.52184970  0.10858827  0.87946179    -0.14300
C1965       C  0.53469202  0.11196775  0.85312533     0.36300
C1966       C  0.56378202  0.11489392  0.85030502    -0.25700
C1967       C  0.58005743  0.11474823  0.87323626    -0.14900
C1968       C  0.56852258  0.11433643  0.89948434     0.37400
N1969       N  0.58581166  0.11555220  0.92312975    -0.89100
H1970       H  0.52984579  0.10895698  0.92253843     0.18500
H1971       H  0.57270700  0.11495392  0.83020930     0.18500
N1972       N  0.51743986  0.11037896  0.82931848    -0.88200
H1973       H  0.57403768  0.11481940  0.94089915     0.35900
H1974       H  0.60598667  0.13664835  0.92310943     0.41000
H1975       H  0.00033376  0.08937052  0.82695349     0.40600
H1976       H  0.53039014  0.11376820  0.81168846     0.35500
C1977       C  0.92972588  0.04293652  0.10116945    -0.26200
C1978       C  0.91948711  0.02894790  0.12660427    -0.14300
C1979       C  0.93857473  0.04061146  0.14943856     0.36300
C1980       C  0.96830665  0.06534279  0.14615299    -0.25700
C1981       C  0.97961106  0.07805062  0.12026979    -0.14900
C1982       C  0.95968980  0.06723313  0.09761464     0.37400
N1983       N  0.97031232  0.07945061  0.07085140    -0.89100
H1984       H  0.91504857  0.03319153  0.08355138     0.18500
H1985       H  0.98320963  0.07371981  0.16374318     0.18500
N1986       N  0.92842077  0.02589249  0.17540051    -0.88200
H1987       H  0.95248510  0.06945800  0.05671502     0.35900
H1988       H  0.48466156  0.07176564  0.06226062     0.41000
H1989       H  0.90994474  0.02828578  0.18156378     0.40600
H1990       H  0.94549441  0.03685785  0.19009319     0.35500
C1991       C  0.69192589  0.27353016  0.09191923    -0.26200
C1992       C  0.69607008  0.25164359  0.10556327    -0.14300
C1993       C  0.72558840  0.25826166  0.11292898     0.36300
C1994       C  0.75032217  0.28755484  0.10803644    -0.25700
C1995       C  0.74597792  0.31024451  0.09600848    -0.14900
C1996       C  0.71658795  0.30277216  0.08686411     0.37400
N1997       N  0.71145744  0.32532152  0.07424843    -0.89100
H1998       H  0.66915344  0.26789413  0.08568489     0.18500
H1999       H  0.77289979  0.29322603  0.11499502     0.18500
N2000       N  0.73010741  0.23581003  0.12651318    -0.88200
H2001       H  0.68822483  0.31645138  0.07015885     0.35900
H2002       H  0.72248493  0.33051252  0.05535205     0.41000
H2003       H  0.71903177  0.23136089  0.14536385     0.40600
H2004       H  0.75329312  0.24441056  0.13062727     0.35500
C2005       C  0.58304095  0.29122334  0.10526511    -0.26200
C2006       C  0.55430056  0.28743032  0.11182181    -0.14300
C2007       C  0.52835557  0.25773063  0.11062135     0.36300
C2008       C  0.53214855  0.23264357  0.10479722    -0.25700
C2009       C  0.56124024  0.23663908  0.09953614    -0.14900
C2010       C  0.58672638  0.26630649  0.09907597     0.37400
N2011       N  0.61667635  0.27076989  0.09376859    -0.89100
H2012       H  0.60296646  0.31383649  0.10533392     0.18500
H2013       H  0.51258410  0.20985803  0.10596242     0.18500
N2014       N  0.49824795  0.25210651  0.11666298    -0.88200
H2015       H  0.63320220  0.29384771  0.09476461     0.35900
H2016       H  0.61679207  0.26374863  0.07375723     0.41000
H2017       H  0.49231596  0.26335313  0.10227210     0.40600
H2018       H  0.49847616  0.26091658  0.13598609     0.35500
C2019       C  0.62325012  0.05909036  0.10429281    -0.26200
C2020       C  0.61564685  0.06892975  0.12830608    -0.14300
C2021       C  0.60522744  0.04954682  0.15105486     0.36300
C2022       C  0.60007201  0.01985887  0.14866008    -0.25700
C2023       C  0.60457090  0.00870783  0.12381056    -0.14900
C2024       C  0.61769737  0.02911216  0.10180505     0.37400
N2025       N  0.62406273  0.01925491  0.07653896    -0.89100
H2026       H  0.63136163  0.07393212  0.08670596     0.18500
H2027       H  0.59118710  0.00496193  0.16614675     0.18500
N2028       N  0.59873258  0.05976175  0.17621179    -0.88200
H2029       H  0.64730342  0.03326413  0.07222528     0.35900
H2030       H  0.62867021  0.50969793  0.07298440     0.41000
H2031       H  0.61931321  0.07775173  0.18350374     0.40600
H2032       H  0.59087058  0.04264735  0.19094380     0.35500
C2033       C  0.64356628  0.14565921  0.01048688    -0.26200
C2034       C  0.61256396  0.13220251  0.01800080    -0.14300
C2035       C  0.59089191  0.10658800  0.00311877     0.36300
C2036       C  0.60066220  0.09465007  0.98199848    -0.25700
C2037       C  0.63183471  0.10764473  0.97498293    -0.14900
C2038       C  0.65331812  0.13385647  0.98930650     0.37400
N2039       N  0.68511162  0.14894514  0.98232093    -0.89100
H2040       H  0.66065546  0.16526369  0.02165808     0.18500
H2041       H  0.58358800  0.07489509  0.97101727     0.18500
N2042       N  0.55899883  0.09149676  0.00960713    -0.88200
H2043       H  0.69740407  0.14946701  0.99960349     0.35900
H2044       H  0.69196493  0.17138317  0.97700198     0.41000
H2045       H  0.55139118  0.10708284  0.00746994     0.40600
H2046       H  0.55615140  0.08437146  0.02988452     0.35500
C2047       C  0.93299414  0.11441874  0.77315363    -0.26200
C2048       C  0.90539219  0.08984790  0.78302134    -0.14300
C2049       C  0.88151657  0.07280734  0.76425306     0.36300
C2050       C  0.88626082  0.08024406  0.73631916    -0.25700
C2051       C  0.91440419  0.10377500  0.72676584    -0.14900
C2052       C  0.93775170  0.12136323  0.74533030     0.37400
N2053       N  0.96645233  0.14587174  0.73572260    -0.89100
H2054       H  0.95151048  0.12795404  0.78709970     0.18500
H2055       H  0.86846202  0.06666591  0.72174933     0.18500
N2056       N  0.85275338  0.04800133  0.77334043    -0.88200
H2057       H  0.98144431  0.15653664  0.75197759     0.35900
H2058       H  0.96220382  0.16216610  0.72707141     0.41000
H2059       H  0.85650609  0.03040480  0.77924994     0.40600
H2060       H  0.83717920  0.03937347  0.75721026     0.35500
C2061       C  0.98276672  0.11991902  0.47707750    -0.26200
C2062       C  0.51739149  0.13547908  0.48086017    -0.14300
C2063       C  0.53100026  0.13934134  0.50674113     0.36300
C2064       C  0.51263127  0.13103888  0.53026430    -0.25700
C2065       C  0.97866730  0.11837043  0.52641415    -0.14900
C2066       C  0.96453686  0.11217718  0.50075621     0.37400
N2067       N  0.93201146  0.09938545  0.49875564    -0.89100
H2068       H  0.97162605  0.11562286  0.45746144     0.18500
H2069       H  0.52367931  0.13526000  0.54995231     0.18500
N2070       N  0.56334611  0.15264635  0.50997063    -0.88200
H2071       H  0.92518849  0.09625650  0.47836329     0.35900
H2072       H  0.92672151  0.11527736  0.50679232     0.41000
H2073       H  0.57411848  0.17419523  0.50102070     0.40600
H2074       H  0.57025733  0.13896776  0.49988097     0.35500
C2075       C  0.59295422  0.19327526  0.23371300    -0.26200
C2076       C  0.58592948  0.16549569  0.22128249    -0.14300
C2077       C  0.57518008  0.13942072  0.23785520     0.36300
C2078       C  0.57152894  0.14149112  0.26586485    -0.25700
C2079       C  0.57843737  0.16909869  0.27846320    -0.14900
C2080       C  0.58954452  0.19546478  0.26206988     0.37400
N2081       N  0.59690044  0.22422298  0.27395397    -0.89100
H2082       H  0.60103176  0.21343287  0.22126077     0.18500
H2083       H  0.56335758  0.12098787  0.27785405     0.18500
N2084       N  0.56794283  0.11054905  0.22652211    -0.88200
H2085       H  0.60264436  0.24066624  0.25883084     0.35900
H2086       H  0.61659438  0.23153767  0.28570093     0.41000
H2087       H  0.54505358  0.09497037  0.23089906     0.40600
H2088       H  0.58150021  0.10319042  0.23615503     0.35500
C2089       C  0.66878868  0.06221615  0.76346507    -0.26200
C2090       C  0.67505590  0.08983997  0.77585704    -0.14300
C2091       C  0.68268034  0.11506229  0.75878459     0.36300
C2092       C  0.68375752  0.11207722  0.73047848    -0.25700
C2093       C  0.67694023  0.08431848  0.71798322    -0.14900
C2094       C  0.66942914  0.05909402  0.73509766     0.37400
N2095       N  0.66183876  0.02983251  0.72455532    -0.89100
H2096       H  0.66272900  0.04240966  0.77591342     0.18500
H2097       H  0.68964910  0.13190716  0.71813461     0.18500
N2098       N  0.68972366  0.14416430  0.76933977    -0.88200
H2099       H  0.68034832  0.03194971  0.71328601     0.35900
H2100       H  0.64266967  0.02196639  0.71197187     0.41000
H2101       H  0.70786119  0.15156647  0.78308585     0.40600
H2102       H  0.67049462  0.14201648  0.77935403     0.35500
C2103       C  0.76960808  0.05545704  0.62661794    -0.26200
C2104       C  0.75896990  0.06309023  0.60328535    -0.14300
C2105       C  0.77769822  0.07233423  0.57959786     0.36300
C2106       C  0.80748138  0.07646122  0.58071551    -0.25700
C2107       C  0.81898948  0.07153143  0.60490697    -0.14900
C2108       C  0.79920135  0.05967746  0.62772480     0.37400
N2109       N  0.80855259  0.05174927  0.65243556    -0.89100
H2110       H  0.75548482  0.04771504  0.64473874     0.18500
H2111       H  0.82229218  0.08506451  0.56306598     0.18500
N2112       N  0.76671795  0.07815712  0.55464121    -0.88200
H2113       H  0.82651328  0.07128226  0.66117077     0.35900
H2114       H  0.81614970  0.03656249  0.64770572     0.41000
H2115       H  0.74805851  0.05759278  0.54817825     0.40600
H2116       H  0.78326450  0.08497420  0.53933522     0.35500
C2117       C  0.57896129  0.11587450  0.65309203    -0.26200
C2118       C  0.59242864  0.12112238  0.62721001    -0.14300
C2119       C  0.58265803  0.13328386  0.60643284     0.36300
C2120       C  0.55851326  0.13876608  0.61166549    -0.25700
C2121       C  0.54326682  0.13106833  0.63688016    -0.14900
C2122       C  0.55398315  0.12005791  0.65788946     0.37400
N2123       N  0.53886401  0.11208772  0.68376639    -0.89100
H2124       H  0.58648558  0.10649795  0.66910502     0.18500
H2125       H  0.55007586  0.14687700  0.59535175     0.18500
N2126       N  0.59656247  0.13895887  0.57992609    -0.88200
H2127       H  0.55491495  0.12482425  0.69875972     0.35900
H2128       H  0.53128412  0.08910263  0.68731966     0.41000
H2129       H  0.61941213  0.15602603  0.58205672     0.40600
H2130       H  0.58639060  0.14745573  0.56678552     0.35500
C2131       C  0.59928729  0.49725160  0.48655250    -0.26200
C2132       C  0.61416728  0.48064564  0.48088033    -0.14300
C2133       C  0.64145628  0.48847622  0.49523088     0.36300
C2134       C  0.65189358  0.01937184  0.50945119    -0.25700
C2135       C  0.63436855  0.03234701  0.51790290    -0.14900
C2136       C  0.60492559  0.02109891  0.50646164     0.37400
N2137       N  0.58640842  0.03399791  0.51431065    -0.89100
H2138       H  0.57859704  0.49194677  0.47563973     0.18500
H2139       H  0.67426791  0.02727312  0.51827121     0.18500
N2140       N  0.65743569  0.47217473  0.49040341    -0.88200
H2141       H  0.56533139  0.02302632  0.50430139     0.35900
H2142       H  0.59761816  0.05661526  0.50778140     0.41000
H2143       H  0.64359189  0.45003695  0.49762959     0.40600
H2144       H  0.67760201  0.48152300  0.50179334     0.35500
C2145       C  0.61496921  0.04929886  0.40307066    -0.26200
C2146       C  0.61347893  0.03665639  0.37721734    -0.14300
C2147       C  0.60829881  0.04999276  0.35418769     0.36300
C2148       C  0.60262542  0.07412415  0.35780787    -0.25700
C2149       C  0.60171314  0.08539435  0.38389442    -0.14900
C2150       C  0.60927285  0.07342786  0.40669036     0.37400
N2151       N  0.60948094  0.08380037  0.43388117    -0.89100
H2152       H  0.61839195  0.03883741  0.42092159     0.18500
H2153       H  0.59761914  0.08330988  0.33992840     0.18500
N2154       N  0.62166635  0.54754539  0.33104023    -0.88200
H2155       H  0.58791384  0.08084590  0.43826072     0.35900
H2156       H  0.62582985  0.10689975  0.43506310     0.41000
H2157       H  0.62493402  0.52886701  0.33099447     0.40600
H2158       H  0.64228794  0.56613097  0.32452995     0.35500
C2159       C  0.58197883  0.28171687  0.40616925    -0.26200
C2160       C  0.55518663  0.25915594  0.39361507    -0.14300
C2161       C  0.53170888  0.26536310  0.38731064     0.36300
C2162       C  0.53635302  0.29470846  0.39237316    -0.25700
C2163       C  0.56388915  0.31779067  0.40377370    -0.14900
C2164       C  0.58651960  0.31073152  0.41141591     0.37400
N2165       N  0.61512974  0.33300481  0.42295194    -0.89100
H2166       H  0.59996630  0.27693468  0.41139441     0.18500
H2167       H  0.51901406  0.30004983  0.38619942     0.18500
N2168       N  0.00458076  0.23983760  0.38233612    -0.88200
H2169       H  0.61080815  0.34080313  0.44121534     0.35900
H2170       H  0.62604346  0.35122298  0.40943036     0.41000
H2171       H  0.00683772  0.23395391  0.36238744     0.40600
H2172       H  0.98872366  0.24728339  0.38169695     0.35500
C2173       C  0.60021803  0.44117368  0.26592521    -0.26200
C2174       C  0.59780206  0.41793841  0.28286982    -0.14300
C2175       C  0.59057876  0.38956640  0.27123647     0.36300
C2176       C  0.58486053  0.38473795  0.24310009    -0.25700
C2177       C  0.58561195  0.40743572  0.22645710    -0.14900
C2178       C  0.59391363  0.43608155  0.23795497     0.37400
N2179       N  0.59610488  0.46016377  0.22124002    -0.89100
H2180       H  0.60565057  0.46295078  0.27459806     0.18500
H2181       H  0.57891994  0.36289136  0.23427369     0.18500
N2182       N  0.58868564  0.36562432  0.28813902    -0.88200
H2183       H  0.61832315  0.47865771  0.22285821     0.35900
H2184       H  0.58106889  0.46682697  0.22897034     0.41000
H2185       H  0.61049575  0.37299308  0.29601971     0.40600
H2186       H  0.58283660  0.34616717  0.27655398     0.35500
C2187       C  0.91659039  0.35597063  0.74375875    -0.26200
C2188       C  0.91389264  0.33307406  0.72603150    -0.14300
C2189       C  0.91656889  0.30867192  0.73665628     0.36300
C2190       C  0.92100515  0.30719654  0.76477287    -0.25700
C2191       C  0.92248487  0.32954045  0.78248086    -0.14900
C2192       C  0.92075578  0.35443137  0.77182489     0.37400
N2193       N  0.92327146  0.37810285  0.78964877    -0.89100
H2194       H  0.91512984  0.37503525  0.73572114     0.18500
H2195       H  0.92246012  0.28814386  0.77284936     0.18500
N2196       N  0.91535985  0.28564961  0.71895235    -0.88200
H2197       H  0.92133429  0.39465668  0.77868673     0.35900
H2198       H  0.94525215  0.38889128  0.79800695     0.41000
H2199       H  0.89747838  0.26462184  0.72544112     0.40600
H2200       H  0.93578987  0.28537360  0.72108071     0.35500
C2201       C  0.77059844  0.24536920  0.61078765    -0.26200
C2202       C  0.80022437  0.24985755  0.60833274    -0.14300
C2203       C  0.80405933  0.22581679  0.59825247     0.36300
C2204       C  0.77829706  0.19721578  0.59310218    -0.25700
C2205       C  0.74876658  0.19193501  0.59798562    -0.14900
C2206       C  0.74488532  0.21660073  0.60606008     0.37400
N2207       N  0.71513975  0.21304791  0.60966894    -0.89100
H2208       H  0.76738850  0.26384699  0.61768927     0.18500
H2209       H  0.78137191  0.17843905  0.58688511     0.18500
N2210       N  0.83420597  0.23039903  0.59373534    -0.88200
H2211       H  0.70383212  0.19759947  0.62538236     0.35900
H2212       H  0.70279247  0.20421961  0.59164790     0.41000
H2213       H  0.84435305  0.24649864  0.57822849     0.40600
H2214       H  0.83307852  0.21044326  0.58665288     0.35500
C2215       C  0.53344893  0.42965586  0.59788143    -0.26200
C2216       C  0.51698023  0.41922726  0.62236671    -0.14300
C2217       C  0.53268846  0.43153154  0.64737100     0.36300
C2218       C  0.56313480  0.45520524  0.64710181    -0.25700
C2219       C  0.57829285  0.46738882  0.62254923    -0.14900
C2220       C  0.56382134  0.45383712  0.59772587     0.37400
N2221       N  0.57956700  0.46598400  0.57239254    -0.89100
H2222       H  0.52210021  0.42020352  0.57866165     0.18500
H2223       H  0.57416914  0.46577112  0.66617299     0.18500
N2224       N  0.51839735  0.42113280  0.67340663    -0.88200
H2225       H  0.56569654  0.45384130  0.55589565     0.35900
H2226       H  0.59123660  0.97926751  0.56319140     0.41000
H2227       H  0.01654040  0.39280650  0.66688406     0.40600
H2228       H  0.50131934  0.42677752  0.67583236     0.35500
C2229       C  0.94326046  0.22574326  0.58866137    -0.26200
C2230       C  0.94961983  0.21799527  0.61433981    -0.14300
C2231       C  0.95472017  0.23731461  0.63659071     0.36300
C2232       C  0.95132737  0.26284478  0.63342805    -0.25700
C2233       C  0.94232502  0.26934531  0.60836832    -0.14900
C2234       C  0.93940347  0.25122698  0.58554189     0.37400
N2235       N  0.93054740  0.25733720  0.55972466    -0.89100
H2236       H  0.93939146  0.21093703  0.57137461     0.18500
H2237       H  0.95415496  0.27679443  0.65115041     0.18500
N2238       N  0.45029522  0.22275791  0.66750320    -0.88200
H2239       H  0.94730028  0.26053264  0.54548623     0.35900
H2240       H  0.91007298  0.23812795  0.55388610     0.41000
H2241       H  0.43028071  0.21823446  0.67770626     0.40600
H2242       H  0.46879263  0.24038218  0.67782933     0.35500
C2243       C  0.89824258  0.45585880  0.65836763    -0.26200
C2244       C  0.88741956  0.43650185  0.63565903    -0.14300
C2245       C  0.88188055  0.44768611  0.61121431     0.36300
C2246       C  0.88887761  0.47808428  0.60957027    -0.25700
C2247       C  0.90156039  0.49808351  0.63177932    -0.14900
C2248       C  0.90490405  0.48621190  0.65681951     0.37400
N2249       N  0.91536636  0.50487021  0.68075375    -0.89100
H2250       H  0.90252819  0.44765257  0.67726103     0.18500
H2251       H  0.88568616  0.48642342  0.59028808     0.18500
N2252       N  0.87115566  0.42936582  0.58711750    -0.88200
H2253       H  0.93522374  0.50545135  0.68758217     0.35900
H2254       H  0.89865284  0.49456905  0.69584747     0.41000
H2255       H  0.84982858  0.41038503  0.59127178     0.40600
H2256       H  0.88652014  0.42205889  0.58200361     0.35500
C2257       C  0.79759668  0.38213468  0.25893310    -0.26200
C2258       C  0.81998932  0.40610438  0.27447517    -0.14300
C2259       C  0.84022475  0.43384685  0.26150417     0.36300
C2260       C  0.83836163  0.43684655  0.23328303    -0.25700
C2261       C  0.81691076  0.41242681  0.21752254    -0.14900
C2262       C  0.79616040  0.38492509  0.23058206     0.37400
N2263       N  0.77353611  0.35976638  0.21511672    -0.89100
H2264       H  0.78171096  0.36085514  0.26868718     0.18500
H2265       H  0.85450594  0.45805163  0.22355822     0.18500
N2266       N  0.86251492  0.45921682  0.27699092    -0.88200
H2267       H  0.75201768  0.35415475  0.22273050     0.35900
H2268       H  0.77669393  0.34118902  0.21827123     0.41000
H2269       H  0.85869728  0.47741091  0.27406113     0.40600
H2270       H  0.88414911  0.46546911  0.26923307     0.35500
C2271       C  0.88920605  0.38055016  0.47544983    -0.26200
C2272       C  0.86715310  0.38986400  0.47575063    -0.14300
C2273       C  0.85478460  0.39142854  0.50087798     0.36300
C2274       C  0.86381993  0.38303034  0.52487334    -0.25700
C2275       C  0.88521538  0.37279618  0.52468514    -0.14900
C2276       C  0.89840365  0.37220682  0.49952713     0.37400
N2277       N  0.92032979  0.36227689  0.49805950    -0.89100
H2278       H  0.89888566  0.37902649  0.45623395     0.18500
H2279       H  0.85325526  0.38391766  0.54378789     0.18500
N2280       N  0.83173186  0.39988745  0.50201967    -0.88200
H2281       H  0.94038371  0.37981567  0.48950500     0.35900
H2282       H  0.91183354  0.34359311  0.48488278     0.41000
H2283       H  0.83940032  0.41861386  0.51504056     0.40600
H2284       H  0.81206197  0.38182864  0.51059376     0.35500
C2285       C  0.91012617  0.03261581  0.39290702    -0.26200
C2286       C  0.90597856  0.01091983  0.37296401    -0.14300
C2287       C  0.92417843  0.02110752  0.34905600     0.36300
C2288       C  0.94760484  0.05144263  0.34688422    -0.25700
C2289       C  0.95345962  0.07243310  0.36780878    -0.14900
C2290       C  0.93358311  0.06330357  0.39051919     0.37400
N2291       N  0.44499949  0.08252261  0.42006537    -0.89100
H2292       H  0.89806505  0.52671515  0.41328294     0.18500
H2293       H  0.96244969  0.05825560  0.32919895     0.18500
N2294       N  0.91980125  0.00065452  0.32710982    -0.88200
H2295       H  0.43128271  0.07040390  0.43661026     0.35900
H2296       H  0.44026165  0.09993326  0.41604538     0.41000
H2297       H  0.94018592  0.00045379  0.32417765     0.40600
H2298       H  0.91528342  0.00909906  0.30940721     0.35500
C2299       C  0.72569101  0.28026348  0.41449119    -0.26200
C2300       C  0.73862591  0.28935942  0.38837994    -0.14300
C2301       C  0.72262815  0.27172768  0.36574054     0.36300
C2302       C  0.69332802  0.24659818  0.36908911    -0.25700
C2303       C  0.67890476  0.23881345  0.39474817    -0.14900
C2304       C  0.69580867  0.25508458  0.41793647     0.37400
N2305       N  0.68200337  0.24744271  0.44446856    -0.89100
H2306       H  0.73811005  0.29392347  0.43196674     0.18500
H2307       H  0.68110796  0.23399112  0.35109195     0.18500
N2308       N  0.73580285  0.27991184  0.33907198    -0.88200
H2309       H  0.69704816  0.26243673  0.45911223     0.35900
H2310       H  0.67849105  0.22593099  0.44938694     0.41000
H2311       H  0.72117492  0.28373572  0.32682603     0.40600
H2312       H  0.73687905  0.26142886  0.33096619     0.35500
C2313       C  0.92845684  0.37635855  0.39383968    -0.26200
C2314       C  0.91868138  0.37771345  0.36746164    -0.14300
C2315       C  0.93804150  0.38213536  0.34512126     0.36300
C2316       C  0.96720382  0.38620168  0.34975408    -0.25700
C2317       C  0.97787758  0.38737591  0.37641827    -0.14900
C2318       C  0.95805453  0.38177827  0.39856027     0.37400
N2319       N  0.96812887  0.38228139  0.42590183    -0.89100
H2320       H  0.91377572  0.37320465  0.41108835     0.18500
H2321       H  0.98229793  0.39046805  0.33256040     0.18500
N2322       N  0.92884043  0.38303908  0.31773139    -0.88200
H2323       H  0.95337826  0.36123275  0.43480734     0.35900
H2324       H  0.96610785  0.39893646  0.43673165     0.41000
H2325       H  0.92452185  0.40102398  0.31598758     0.40600
H2326       H  0.90852070  0.36273019  0.31386509     0.35500
C2327       C  0.74131541  0.43801539  0.36871182    -0.26200
C2328       C  0.75153601  0.43239839  0.39352664    -0.14300
C2329       C  0.73827762  0.43477633  0.41802154     0.36300
C2330       C  0.71385200  0.44071203  0.41695484    -0.25700
C2331       C  0.70250727  0.44457905  0.39196565    -0.14900
C2332       C  0.71719221  0.44423782  0.36763429     0.37400
N2333       N  0.70634608  0.44816200  0.34177192    -0.89100
H2334       H  0.75177136  0.43677901  0.34982523     0.18500
H2335       H  0.70274986  0.44110467  0.43572796     0.18500
N2336       N  0.74859621  0.42983166  0.44373331    -0.88200
H2337       H  0.71839473  0.44531054  0.32579798     0.35900
H2338       H  0.71127754  0.47071630  0.34074674     0.41000
H2339       H  0.74322751  0.40711987  0.44430803     0.40600
H2340       H  0.73665622  0.43272877  0.45977760     0.35500
Zn2341     Zn  0.83107140  0.86133682  0.39844708     1.49700
Zn2342     Zn  0.79000404  0.87898562  0.36273704     1.49400
Zn2343     Zn  0.83346268  0.92550936  0.41056729     1.49100
Zn2344     Zn  0.86083822  0.91416636  0.35540235     1.49500
O2345       O  0.82860682  0.89522482  0.38221507    -1.84000
O2346       O  0.79047231  0.82169547  0.39759702    -0.74600
O2347       O  0.76884617  0.90107451  0.37582617    -0.74500
O2348       O  0.84705763  0.91490265  0.44734442    -0.74000
O2349       O  0.76283486  0.83429219  0.37113933    -0.74700
O2350       O  0.84395774  0.87072318  0.43703807    -0.74300
O2351       O  0.79337888  0.92742066  0.41293493    -0.74800
O2352       O  0.88354191  0.95881263  0.36062994    -0.74200
O2353       O  0.79495357  0.88535652  0.32158698    -0.75000
O2354       O  0.86658956  0.96873900  0.39860852    -0.74400
O2355       O  0.84533506  0.90881139  0.31723853    -0.74800
O2356       O  0.89085748  0.89972283  0.35901387    -0.74800
O2357       O  0.86581524  0.85722815  0.38320976    -0.74500
C2358       C  0.76555689  0.81494725  0.38555451     0.77200
C2359       C  0.77145396  0.91836772  0.39572318     0.77700
C2360       C  0.85034697  0.89222531  0.45367661     0.76700
C2361       C  0.88404397  0.97783123  0.37770486     0.77100
C2362       C  0.81892745  0.89840420  0.30687890     0.78200
C2363       C  0.88947939  0.87659897  0.37032363     0.77300
Zn2364     Zn  0.88919557  0.80709257  0.64277151     1.49700
Zn2365     Zn  0.92738609  0.84864384  0.59351818     1.49400
Zn2366     Zn  0.86365205  0.84379161  0.61360186     1.49100
Zn2367     Zn  0.92088634  0.87568992  0.65182206     1.49500
O2368       O  0.90073414  0.84437888  0.62482065    -1.84000
O2369       O  0.91741734  0.79302835  0.63268163    -0.74600
O2370       O  0.91085393  0.85885204  0.55784442    -0.74500
O2371       O  0.82619294  0.80086847  0.61447586    -0.74000
O2372       O  0.93372968  0.81096318  0.59108163    -0.74700
O2373       O  0.84863794  0.77558451  0.62928083    -0.74300
O2374       O  0.86825079  0.85447541  0.57490103    -0.74800
O2375       O  0.90669269  0.90582538  0.64760306    -0.74200
O2376       O  0.97007735  0.88328973  0.60292326    -0.75000
O2377       O  0.86039160  0.87934564  0.62909682    -0.74400
O2378       O  0.96583142  0.89707928  0.64502447    -0.74800
O2379       O  0.91376554  0.85943513  0.69032894    -0.74800
O2380       O  0.89048812  0.80963990  0.68348887    -0.74500
C2381       C  0.93148833  0.79372737  0.61105128     0.77200
C2382       C  0.88627790  0.86018639  0.55500561     0.77700
C2383       C  0.82594042  0.77592273  0.61861901     0.76700
C2384       C  0.88223655  0.90413973  0.63869906     0.77100
C2385       C  0.98207208  0.89879192  0.62457043     0.78200
C2386       C  0.90206898  0.83242055  0.69943544     0.77300
Zn2387     Zn  0.62664108  0.95782084  0.36654621     1.49700
Zn2388     Zn  0.56919239  0.94604723  0.40131538     1.49400
Zn2389     Zn  0.56507829  0.89286288  0.36688838     1.49100
Zn2390     Zn  0.60710863  0.91597234  0.42016414     1.49500
O2391       O  0.59240514  0.92785469  0.38843575    -1.84000
O2392       O  0.62995201  0.50065154  0.37160471    -0.74600
O2393       O  0.52362598  0.91878888  0.39677781    -0.74500
O2394       O  0.57996600  0.89753935  0.32848299    -0.74000
O2395       O  0.58133456  0.98419744  0.38117040    -0.74700
O2396       O  0.61837952  0.94533836  0.32606340    -0.74300
O2397       O  0.52236321  0.88657520  0.36538683    -0.74800
O2398       O  0.58443552  0.86909047  0.42380855    -0.74200
O2399       O  0.58175108  0.96236256  0.43919569    -0.75000
O2400       O  0.56259574  0.85561587  0.38279271    -0.74400
O2401       O  0.61004984  0.94281947  0.45301118    -0.74800
O2402       O  0.65024163  0.92608503  0.41327243    -0.74800
O2403       O  0.66550320  0.95659447  0.37730943    -0.74500
C2404       C  0.60824710  0.50543680  0.37843625     0.77200
C2405       C  0.50905308  0.89752191  0.37956090     0.77700
C2406       C  0.59999744  0.91987329  0.31473903     0.76700
C2407       C  0.57033833  0.84900436  0.40526490     0.77100
C2408       C  0.59986308  0.96113711  0.45641909     0.78200
C2409       C  0.67062229  0.94196092  0.39577681     0.77300
Zn2410     Zn  0.62726293  0.55992186  0.59822799     1.49700
Zn2411     Zn  0.66987167  0.54563737  0.63738616     1.49400
Zn2412     Zn  0.69646479  0.58989786  0.58540202     1.49100
Zn2413     Zn  0.67294091  0.60985690  0.63758535     1.49500
O2414       O  0.66696432  0.57613002  0.61502495    -1.84000
O2415       O  0.59885406  0.02411538  0.61266565    -0.74600
O2416       O  0.71052116  0.54650520  0.62849996    -0.74500
O2417       O  0.67606828  0.56529519  0.55061780    -0.74000
O2418       O  0.62985627  0.00737556  0.62645475    -0.74700
O2419       O  0.62722904  0.54935746  0.55898206    -0.74300
O2420       O  0.72835524  0.57916452  0.59399957    -0.74800
O2421       O  0.70926587  0.64761493  0.62483256    -0.74200
O2422       O  0.67041811  0.55611205  0.67793273    -0.75000
O2423       O  0.72002567  0.63675663  0.58363012    -0.74400
O2424       O  0.67704136  0.60257033  0.67674096    -0.74800
O2425       O  0.63783570  0.61757835  0.63626104    -0.74800
O2426       O  0.60760116  0.58564309  0.60444472    -0.74500
C2427       C  0.60338864  0.00260609  0.61947384     0.77200
C2428       C  0.73131597  0.56187674  0.61083780     0.77700
C2429       C  0.64789641  0.54982592  0.54388933     0.76700
C2430       C  0.72436391  0.65578248  0.60271983     0.77100
C2431       C  0.67395589  0.57986655  0.69019968     0.78200
C2432       C  0.61402047  0.60689405  0.62157038     0.77300
Zn2433     Zn  0.58656425  0.65899750  0.41520641     1.49700
Zn2434     Zn  0.55262480  0.62941016  0.35874254     1.49400
Zn2435     Zn  0.52608088  0.66123400  0.39617557     1.49100
Zn2436     Zn  0.58750870  0.69897960  0.36405698     1.49500
O2437       O  0.56322275  0.66195966  0.38410840    -1.84000
O2438       O  0.59475333  0.62400271  0.40819446    -0.74600
O2439       O  0.50811887  0.59948614  0.36209622    -0.74500
O2440       O  0.51936124  0.64897467  0.43493904    -0.74000
O2441       O  0.57559808  0.60800803  0.36684892    -0.74700
O2442       O  0.56046638  0.64929643  0.45115041    -0.74300
O2443       O  0.98420736  0.62845745  0.37580941    -0.74800
O2444       O  0.57777049  0.73072074  0.37738023    -0.74200
O2445       O  0.56221208  0.64374207  0.32014009    -0.75000
O2446       O  0.53135330  0.70426377  0.39561859    -0.74400
O2447       O  0.58481659  0.69386289  0.32249712    -0.74800
O2448       O  0.63061410  0.71417351  0.37370696    -0.74800
O2449       O  0.63051101  0.69682085  0.41531299    -0.74500
C2450       C  0.59033747  0.60712262  0.38742672     0.77200
C2451       C  0.97949639  0.60304887  0.36641233     0.77700
C2452       C  0.53325197  0.64473295  0.45441804     0.76700
C2453       C  0.55490732  0.72971353  0.38941419     0.77100
C2454       C  0.57494519  0.66955297  0.30847127     0.78200
C2455       C  0.64481975  0.71375379  0.39488677     0.77300
Zn2456     Zn  0.95177973  0.59527366  0.65005014     1.49700
Zn2457     Zn  0.97298667  0.64848780  0.60767472     1.49400
Zn2458     Zn  0.91242490  0.58285708  0.59542288     1.49100
Zn2459     Zn  0.91408483  0.62854616  0.64337093     1.49500
O2460       O  0.93728886  0.61345505  0.62373172    -1.84000
O2461       O  0.99653308  0.61124804  0.64521099    -0.74600
O2462       O  0.97681244  0.63918631  0.56956964    -0.74500
O2463       O  0.90457810  0.54056624  0.60721539    -0.74000
O2464       O  0.51008938  0.64877572  0.62722483    -0.74700
O2465       O  0.93033810  0.54999291  0.64585118    -0.74300
O2466       O  0.93692615  0.59451106  0.55827599    -0.74800
O2467       O  0.87087045  0.60461276  0.63138299    -0.74200
O2468       O  0.97010647  0.68698339  0.60779498    -0.75000
O2469       O  0.86879492  0.57780419  0.59467463    -0.74400
O2470       O  0.92940995  0.67289014  0.63427977    -0.74800
O2471       O  0.91330761  0.62232384  0.68440430    -0.74800
O2472       O  0.94325627  0.60223447  0.68813999    -0.74500
C2473       C  0.51498821  0.62836220  0.63695388     0.77200
C2474       C  0.96297535  0.61782224  0.55251368     0.77700
C2475       C  0.91252532  0.53123360  0.62812122     0.76700
C2476       C  0.85572660  0.58613135  0.61240287     0.77100
C2477       C  0.95102024  0.69266355  0.61951943     0.78200
C2478       C  0.92659895  0.61162110  0.69886112     0.77300
Zn2479     Zn  0.57403883  0.62617673  0.14107547     1.49700
Zn2480     Zn  0.56353199  0.65234383  0.08525687     1.49400
Zn2481     Zn  0.60660739  0.69559472  0.13469157     1.49100
Zn2482     Zn  0.62889484  0.65741635  0.10070474     1.49500
O2483       O  0.59296781  0.65805588  0.11477150    -1.84000
O2484       O  0.52935117  0.60344689  0.13582146    -0.74600
O2485       O  0.56023040  0.69148270  0.08284857    -0.74500
O2486       O  0.60162982  0.69097354  0.17631600    -0.74000
O2487       O  0.52039971  0.61783740  0.09598731    -0.74700
O2488       O  0.58037287  0.64108839  0.17935784    -0.74300
O2489       O  0.58373817  0.71511160  0.12135620    -0.74800
O2490       O  0.66770970  0.69861666  0.10260245    -0.74200
O2491       O  0.57743201  0.64096351  0.04872175    -0.75000
O2492       O  0.64953538  0.72503897  0.12367922    -0.74400
O2493       O  0.62261420  0.64811612  0.06178680    -0.74800
O2494       O  0.63208985  0.62120844  0.11386466    -0.74800
O2495       O  0.58833310  0.59655734  0.13666096    -0.74500
C2496       C  0.51082056  0.60139512  0.11741382     0.77200
C2497       C  0.56831342  0.71304308  0.10024303     0.77700
C2498       C  0.59005093  0.66681223  0.19065961     0.76700
C2499       C  0.67079504  0.72379836  0.11087453     0.77100
C2500       C  0.60230972  0.64086298  0.04366377     0.78200
C2501       C  0.61164272  0.59746441  0.12591456     0.77300
Zn2502     Zn  0.66947217  0.62108332  0.86166748     1.49700
Zn2503     Zn  0.66650595  0.55695424  0.86158031     1.49400
Zn2504     Zn  0.68759453  0.59635046  0.91489392     1.49100
Zn2505     Zn  0.61971556  0.56590319  0.89540295     1.49500
O2506       O  0.66141525  0.58559521  0.88323549    -1.84000
O2507       O  0.67108422  0.61161444  0.82100622    -0.74600
O2508       O  0.70386754  0.55659324  0.87276470    -0.74500
O2509       O  0.72085759  0.63928382  0.91051746    -0.74000
O2510       O  0.66928771  0.56716238  0.82227508    -0.74700
O2511       O  0.70995144  0.65783676  0.87411914    -0.74300
O2512       O  0.71062010  0.57222424  0.91574714    -0.74800
O2513       O  0.61714390  0.57810073  0.93360428    -0.74200
O2514       O  0.63183114  0.51451451  0.86585163    -0.75000
O2515       O  0.66469359  0.59840977  0.94886070    -0.74400
O2516       O  0.59860375  0.52051581  0.89093860    -0.74800
O2517       O  0.59709676  0.58235880  0.87562649    -0.74800
O2518       O  0.63460701  0.62985167  0.86835698    -0.74500
C2519       C  0.67071362  0.58915305  0.80878262     0.77200
C2520       C  0.71773933  0.56114383  0.89537665     0.77700
C2521       C  0.72739081  0.66110168  0.89425234     0.76700
C2522       C  0.63704749  0.59237467  0.95189304     0.77100
C2523       C  0.60626714  0.50364117  0.87792738     0.78200
C2524       C  0.60643491  0.61047050  0.87225681     0.77300
Zn2525     Zn  0.58935470  0.87950957  0.14312565     1.49700
Zn2526     Zn  0.55402435  0.91457012  0.14962885     1.49400
Zn2527     Zn  0.58905259  0.92015703  0.09272140     1.49100
Zn2528     Zn  0.52849378  0.85781580  0.11079491     1.49500
O2529       O  0.56545348  0.89349244  0.12372161    -1.84000
O2530       O  0.58927221  0.88417268  0.18460531    -0.74600
O2531       O  0.57577427  0.95847531  0.14044567    -0.74500
O2532       O  0.63080729  0.92174088  0.09045108    -0.74000
O2533       O  0.56774950  0.91285936  0.18766776    -0.74700
O2534       O  0.63266958  0.90486740  0.13191757    -0.74300
O2535       O  0.59998099  0.96415180  0.10128036    -0.74800
O2536       O  0.52258746  0.86386659  0.07215454    -0.74200
O2537       O  0.50852900  0.89864256  0.14803765    -0.75000
O2538       O  0.56282887  0.90587506  0.05675935    -0.74400
O2539       O  0.98910662  0.85172396  0.12542465    -0.74800
O2540       O  0.53176986  0.81966193  0.11075607    -0.74800
O2541       O  0.57717943  0.83702392  0.13025763    -0.74500
C2542       C  0.58159308  0.90048477  0.19861216     0.77200
C2543       C  0.59311923  0.97542969  0.12153602     0.77700
C2544       C  0.64552004  0.91774619  0.10971229     0.76700
C2545       C  0.53631071  0.88245358  0.05300689     0.77100
C2546       C  0.98449943  0.87217035  0.13549943     0.78200
C2547       C  0.55416631  0.81623352  0.11750114     0.77300
Zn2548     Zn  0.88850146  0.82651222  0.87077438     1.49700
Zn2549     Zn  0.90956223  0.80298098  0.92082196     1.49400
Zn2550     Zn  0.94903970  0.82121384  0.86439079     1.49100
Zn2551     Zn  0.94662039  0.87091642  0.90342561     1.49500
O2552       O  0.92372963  0.83005489  0.88963507    -1.84000
O2553       O  0.85058456  0.79009051  0.88282372    -0.74600
O2554       O  0.92114950  0.77147671  0.91482704    -0.74500
O2555       O  0.93318907  0.81747012  0.82521968    -0.74000
O2556       O  0.86253267  0.77798846  0.92256992    -0.74700
O2557       O  0.89289693  0.82331910  0.83114944    -0.74300
O2558       O  0.94830264  0.78217390  0.87666101    -0.74800
O2559       O  0.98564695  0.89166011  0.88436240    -0.74200
O2560       O  0.93337784  0.82497020  0.95534090    -0.75000
O2561       O  0.49641459  0.86023953  0.86584667    -0.74400
O2562       O  0.95947861  0.87320017  0.94237598    -0.74800
O2563       O  0.92706543  0.89561031  0.89474818    -0.74800
O2564       O  0.88399459  0.86326942  0.87361826    -0.74500
C2565       C  0.84299673  0.77348157  0.90392339     0.77200
C2566       C  0.93591434  0.76526675  0.89748714     0.77700
C2567       C  0.91144509  0.82058271  0.81562712     0.76700
C2568       C  0.50564347  0.88755392  0.87340987     0.77100
C2569       C  0.95372883  0.85267903  0.95992628     0.78200
C2570       C  0.90289297  0.88984559  0.88193511     0.77300
Zn2571     Zn  0.80389428  0.90883694  0.08523712     1.49700
Zn2572     Zn  0.87144569  0.93777665  0.10101066     1.49400
Zn2573     Zn  0.82755622  0.95098128  0.13861253     1.49100
Zn2574     Zn  0.82341898  0.88625864  0.13821290     1.49500
O2575       O  0.83117779  0.92100503  0.11626355    -1.84000
O2576       O  0.82560075  0.93382988  0.05112489    -0.74600
O2577       O  0.89849008  0.97725757  0.11857768    -0.74500
O2578       O  0.78807451  0.95100894  0.12806875    -0.74000
O2579       O  0.87389603  0.95085510  0.06206675    -0.74700
O2580       O  0.77137105  0.91863559  0.09341470    -0.74300
O2581       O  0.86621539  0.49290213  0.12910657    -0.74800
O2582       O  0.81375877  0.89098010  0.17694916    -0.74200
O2583       O  0.88922071  0.91064488  0.10637579    -0.75000
O2584       O  0.82376161  0.93886730  0.17893374    -0.74400
O2585       O  0.85945607  0.87956883  0.13896073    -0.74800
O2586       O  0.78869720  0.84895055  0.12228814    -0.74800
O2587       O  0.78082144  0.86271841  0.08130409    -0.74500
C2588       C  0.85406354  0.94985616  0.04562240     0.77200
C2589       C  0.89102322  0.49812192  0.11743057     0.77700
C2590       C  0.76763760  0.93556118  0.11022626     0.76700
C2591       C  0.81681600  0.91370401  0.19051134     0.77100
C2592       C  0.88296747  0.88980300  0.12379011     0.78200
C2593       C  0.77488420  0.84254213  0.09950714     0.77300
Zn2594     Zn  0.89058731  0.58129711  0.91739379     1.49700
Zn2595     Zn  0.87567555  0.54309384  0.86144304     1.49400
Zn2596     Zn  0.93819970  0.60664559  0.86815596     1.49100
Zn2597     Zn  0.93056363  0.55308300  0.90176417     1.49500
O2598       O  0.90806196  0.57092857  0.88680163    -1.84000
O2599       O  0.84765491  0.56935921  0.90829275    -0.74600
O2600       O  0.88508394  0.56080839  0.82264203    -0.74500
O2601       O  0.93954254  0.64298329  0.88399602    -0.74000
O2602       O  0.83421545  0.53841757  0.87263724    -0.74700
O2603       O  0.91217964  0.62770612  0.92220282    -0.74300
O2604       O  0.92791516  0.60478850  0.82934609    -0.74800
O2605       O  0.97685975  0.57960214  0.90025455    -0.74200
O2606       O  0.87229994  0.00045234  0.86208223    -0.75000
O2607       O  0.98020074  0.61196094  0.86842687    -0.74400
O2608       O  0.91894155  0.01612547  0.87850575    -0.74800
O2609       O  0.91407785  0.53464795  0.93838088    -0.74800
O2610       O  0.88550240  0.55445064  0.95057155    -0.74500
C2611       C  0.82764304  0.55198594  0.89113594     0.77200
C2612       C  0.90718820  0.58577340  0.81367120     0.77700
C2613       C  0.92884780  0.64867804  0.90522098     0.76700
C2614       C  0.99241473  0.60028777  0.88288814     0.77100
C2615       C  0.89434707  0.99582878  0.86755542     0.78200
C2616       C  0.89498276  0.53572361  0.95461426     0.77300
C2617       C  0.84725245  0.98321266  0.01248823    -0.26200
C2618       C  0.86460931  0.97016169  0.02118454    -0.14300
C2619       C  0.89303244  0.97949030  0.00815747     0.36300
C2620       C  0.89838048  0.49817583  0.98496582    -0.25700
C2621       C  0.88238460  0.51297656  0.97726701    -0.14900
C2622       C  0.85330623  0.50312999  0.98907055     0.37400
N2623       N  0.83533981  0.51644025  0.98081090    -0.89100
H2624       H  0.82564461  0.97658468  0.02240054     0.18500
H2625       H  0.92033421  0.50475105  0.97577791     0.18500
N2626       N  0.91200800  0.96705160  0.01525963    -0.88200
H2627       H  0.81499210  0.50725534  0.99195094     0.35900
H2628       H  0.82903684  0.51030269  0.96049677     0.41000
H2629       H  0.89895488  0.94333310  0.01420205     0.40600
H2630       H  0.92009193  0.97364500  0.03509408     0.35500
C2631       C  0.91954100  0.96659509  0.85733761    -0.26200
C2632       C  0.89218453  0.96609981  0.86348137    -0.14300
C2633       C  0.86657750  0.93873662  0.87233466     0.36300
C2634       C  0.86989720  0.91322583  0.87721670    -0.25700
C2635       C  0.89847300  0.91526466  0.87421804    -0.14900
C2636       C  0.92309172  0.94163236  0.86286281     0.37400
N2637       N  0.95185447  0.94317882  0.85757487    -0.89100
H2638       H  0.93902827  0.98744103  0.85002989     0.18500
H2639       H  0.85076159  0.89240801  0.88495061     0.18500
N2640       N  0.83803834  0.93744390  0.87790314    -0.88200
H2641       H  0.96775429  0.96440448  0.84963225     0.35900
H2642       H  0.94816152  0.92711958  0.84249879     0.41000
H2643       H  0.84133418  0.95150379  0.89465375     0.40600
H2644       H  0.82146915  0.91546694  0.88372448     0.35500
C2645       C  0.95772856  0.70357753  0.89271886    -0.26200
C2646       C  0.93424038  0.68010048  0.90816073    -0.14300
C2647       C  0.91339568  0.68605404  0.92201409     0.36300
C2648       C  0.91520625  0.71430860  0.91887661    -0.25700
C2649       C  0.93733374  0.73704630  0.90190304    -0.14900
C2650       C  0.95954986  0.73194694  0.88947299     0.37400
N2651       N  0.48368612  0.75654987  0.87093907    -0.89100
H2652       H  0.97417575  0.69941881  0.88226245     0.18500
H2653       H  0.89815485  0.71785154  0.92895244     0.18500
N2654       N  0.88922617  0.66299583  0.93805398    -0.88200
H2655       H  0.49758716  0.74862455  0.86292898     0.35900
H2656       H  0.49732276  0.77415471  0.88441738     0.41000
H2657       H  0.86838988  0.65888104  0.92992293     0.40600
H2658       H  0.89104633  0.67144563  0.95781791     0.35500
C2659       C  0.97644070  0.83755788  0.99739854    -0.26200
C2660       C  0.97354499  0.86064411  0.98465983    -0.14300
C2661       C  0.99268222  0.89102256  0.99353547     0.36300
C2662       C  0.51698663  0.89947571  0.01362161    -0.25700
C2663       C  0.51934413  0.87621946  0.02673078    -0.14900
C2664       C  0.50134619  0.84602039  0.01679171     0.37400
N2665       N  0.50398311  0.82124769  0.02757252    -0.89100
H2666       H  0.96269020  0.81420943  0.99058638     0.18500
H2667       H  0.53030435  0.92264469  0.02099439     0.18500
N2668       N  0.99011602  0.91532539  0.98161848    -0.88200
H2669       H  0.99017788  0.81485573  0.04995755     0.35900
H2670       H  0.52700474  0.82722027  0.02727214     0.41000
H2671       H  0.01143815  0.93109406  0.97361066     0.40600
H2672       H  0.48880883  0.92836060  0.99435108     0.35500
C2673       C  0.91449555  0.87678650  0.15331362    -0.26200
C2674       C  0.90434169  0.87834230  0.12708359    -0.14300
C2675       C  0.91726172  0.87227014  0.10417009     0.36300
C2676       C  0.94185031  0.86718824  0.10779644    -0.25700
C2677       C  0.95391300  0.86861763  0.13380888    -0.14900
C2678       C  0.93957240  0.87235576  0.15685851     0.37400
N2679       N  0.95136501  0.87285006  0.18356880    -0.89100
H2680       H  0.90424854  0.88111977  0.17090099     0.18500
H2681       H  0.95305433  0.86431740  0.09011915     0.18500
N2682       N  0.90603905  0.87239065  0.07731133    -0.88200
H2683       H  0.94882739  0.85140964  0.18703682     0.35900
H2684       H  0.93831872  0.87596937  0.19839524     0.41000
H2685       H  0.88341996  0.85451617  0.07631456     0.40600
H2686       H  0.91824964  0.86786889  0.06263671     0.35500
C2687       C  0.69813409  0.94335913  0.12846563    -0.26200
C2688       C  0.67820569  0.92724570  0.10695012    -0.14300
C2689       C  0.68853680  0.91605157  0.08582286     0.36300
C2690       C  0.71831060  0.92064724  0.08671433    -0.25700
C2691       C  0.73814407  0.93570559  0.10882667    -0.14900
C2692       C  0.72776574  0.94769793  0.12971093     0.37400
N2693       N  0.74600775  0.96321385  0.15300540    -0.89100
H2694       H  0.69011212  0.95160979  0.14510788     0.18500
H2695       H  0.72534266  0.91108193  0.07040931     0.18500
N2696       N  0.66818573  0.89816848  0.06440735    -0.88200
H2697       H  0.76613220  0.98228114  0.14641611     0.35900
H2698       H  0.75127213  0.94851168  0.16343536     0.50600
H2699       H  0.66623687  0.87667625  0.06472876     0.40600
H2700       H  0.68868915  0.42148473  0.04268587     0.35500
C2701       C  0.76065123  0.71673052  0.88507395    -0.26200
C2702       C  0.75595686  0.69069722  0.89907116    -0.14300
C2703       C  0.77886419  0.69341196  0.91739618     0.36300
C2704       C  0.80611913  0.72131867  0.92029825    -0.25700
C2705       C  0.81148528  0.74683266  0.90510603    -0.14900
C2706       C  0.78795665  0.74461106  0.88796976     0.37400
N2707       N  0.79174535  0.77052535  0.87314713    -0.89100
H2708       H  0.74320860  0.71546396  0.87146192     0.18500
H2709       H  0.82384948  0.72244173  0.93344159     0.18500
N2710       N  0.77525421  0.66769310  0.93243727    -0.88200
H2711       H  0.77412670  0.77454596  0.87876890     0.35900
H2712       H  0.78940218  0.76516737  0.85238918     0.41000
H2713       H  0.77703182  0.67303327  0.95317922     0.40600
H2714       H  0.79321478  0.66401087  0.92727812     0.35500
C2715       C  0.57703148  0.95451343  0.89795880    -0.26200
C2716       C  0.58725208  0.97149750  0.87397156    -0.14300
C2717       C  0.57443193  0.95734784  0.84873228     0.36300
C2718       C  0.54979260  0.92742096  0.84831174    -0.25700
C2719       C  0.53795064  0.91133395  0.87261433    -0.14900
C2720       C  0.55289447  0.92444082  0.89757100     0.37400
N2721       N  0.54259831  0.90868344  0.92313663    -0.89100
H2722       H  0.58709090  0.96507762  0.91731604     0.18500
H2723       H  0.01090451  0.92798761  0.83663965     0.18500
N2724       N  0.58382121  0.46791023  0.82577374    -0.88200
H2725       H  0.56084047  0.90737688  0.93162219     0.35900
H2726       H  0.52517787  0.88619860  0.92031061     0.41000
H2727       H  0.60103830  0.49059881  0.82693022     0.40600
H2728       H  0.58184234  0.99285627  0.82484902     0.35500
C2729       C  0.78873295  0.55795526  0.91745379    -0.26200
C2730       C  0.79672913  0.54894614  0.89304702    -0.14300
C2731       C  0.77634655  0.54043944  0.87077148     0.36300
C2732       C  0.75007061  0.54295763  0.87289446    -0.25700
C2733       C  0.74334117  0.55436583  0.89659657    -0.14900
C2734       C  0.76272941  0.56097712  0.91944445     0.37400
N2735       N  0.75735827  0.57158590  0.94475341    -0.89100
H2736       H  0.80353355  0.56394853  0.93507943     0.18500
H2737       H  0.73548569  0.53707261  0.85513254     0.18500
N2738       N  0.77682325  0.02070146  0.85186841    -0.88200
H2739       H  0.73565248  0.55568655  0.95184434     0.35900
H2740       H  0.75847383  0.59246474  0.94154517     0.41000
H2741       H  0.77909708  0.00238760  0.85845038     0.40600
H2742       H  0.79618561  0.03589208  0.84081723     0.35500
C2743       C  0.54344515  0.61622303  0.90537085    -0.26200
C2744       C  0.52558895  0.61364578  0.88267065    -0.14300
C2745       C  0.53827231  0.61771840  0.85623039     0.36300
C2746       C  0.56722783  0.62053530  0.85298011    -0.25700
C2747       C  0.58361291  0.61995946  0.87563855    -0.14900
C2748       C  0.57266430  0.61991300  0.90207328     0.37400
N2749       N  0.59044629  0.62140457  0.92542791    -0.89100
H2750       H  0.53398648  0.61388061  0.92564112     0.18500
H2751       H  0.57581635  0.62055988  0.83273838     0.18500
N2752       N  0.52085101  0.61664431  0.83271320    -0.88200
H2753       H  0.57909758  0.62106260  0.94336313     0.35900
H2754       H  0.61066065  0.64245476  0.92499223     0.41000
H2755       H  0.99550604  0.57773342  0.83132231     0.40600
H2756       H  0.53371779  0.62051911  0.81494550     0.35500
C2757       C  0.93193165  0.53809291  0.08985680    -0.26200
C2758       C  0.91770266  0.52892297  0.11543740    -0.14300
C2759       C  0.93261115  0.54600285  0.13874119     0.36300
C2760       C  0.96265130  0.57056440  0.13627673    -0.25700
C2761       C  0.97776806  0.57837300  0.11093201    -0.14900
C2762       C  0.96187304  0.56256859  0.08731730     0.37400
N2763       N  0.97675069  0.57001838  0.06118147    -0.89100
H2764       H  0.92030601  0.52471312  0.07197568     0.18500
H2765       H  0.97478882  0.58293821  0.15438176     0.18500
N2766       N  0.91816474  0.53696819  0.16495796    -0.88200
H2767       H  0.96168229  0.55629809  0.04592612     0.35900
H2768       H  0.46051705  0.56608084  0.05987071     0.41000
H2769       H  0.89911838  0.53987766  0.16473056     0.40600
H2770       H  0.93268861  0.55138109  0.18017085     0.35500
C2771       C  0.69453235  0.77735989  0.09665036    -0.26200
C2772       C  0.69849660  0.75289598  0.10410981    -0.14300
C2773       C  0.72824350  0.75717261  0.10550825     0.36300
C2774       C  0.75348603  0.78661239  0.10180699    -0.25700
C2775       C  0.74932086  0.81133289  0.09582714    -0.14900
C2776       C  0.71958590  0.80645640  0.09225814     0.37400
N2777       N  0.71490497  0.83153927  0.08637122    -0.89100
H2778       H  0.67164198  0.77387523  0.09484920     0.18500
H2779       H  0.77644310  0.79058921  0.10474145     0.18500
N2780       N  0.73273225  0.73208879  0.11178471    -0.88200
H2781       H  0.69157961  0.82435818  0.08587730     0.35900
H2782       H  0.72323205  0.83915595  0.06675208     0.41000
H2783       H  0.72472057  0.72494379  0.13156663     0.40600
H2784       H  0.75603608  0.73913836  0.11188963     0.35500
C2785       C  0.58270079  0.79255384  0.09864176    -0.26200
C2786       C  0.55497429  0.78864311  0.10879969    -0.14300
C2787       C  0.52947400  0.75884757  0.11055471     0.36300
C2788       C  0.53311340  0.73372495  0.10474921    -0.25700
C2789       C  0.56151761  0.73781668  0.09645956    -0.14900
C2790       C  0.58610812  0.76749096  0.09220324     0.37400
N2791       N  0.61502385  0.77193884  0.08282114    -0.89100
H2792       H  0.60206119  0.81533080  0.09629756     0.18500
H2793       H  0.51425860  0.71097254  0.10846167     0.18500
N2794       N  0.50023978  0.75334606  0.11972090    -0.88200
H2795       H  0.63094710  0.79512150  0.08103033     0.35900
H2796       H  0.61171252  0.76273771  0.06320882     0.41000
H2797       H  0.49229736  0.76352223  0.10603375     0.40600
H2798       H  0.50291441  0.76347665  0.13884412     0.35500
C2799       C  0.61718850  0.55801421  0.10091062    -0.26200
C2800       C  0.61286886  0.56908412  0.12574572    -0.14300
C2801       C  0.60338685  0.55011189  0.14876762     0.36300
C2802       C  0.59645187  0.51983180  0.14613232    -0.25700
C2803       C  0.59847171  0.50776209  0.12083555    -0.14900
C2804       C  0.60995698  0.52762998  0.09812546     0.37400
N2805       N  0.61312274  0.51749246  0.07171842    -0.89100
H2806       H  0.62410775  0.57242704  0.08302754     0.18500
H2807       H  0.58859638  0.50537019  0.16395653     0.18500
N2808       N  0.59983759  0.56147352  0.17456529    -0.88200
H2809       H  0.59183526  0.49971042  0.06549384     0.35900
H2810       H  0.61158562  0.02237494  0.06120854     0.41000
H2811       H  0.62144527  0.57883647  0.18063332     0.40600
H2812       H  0.59237875  0.54460012  0.18947705     0.35500
C2813       C  0.63971953  0.64445552  0.00913323    -0.26200
C2814       C  0.60889090  0.63081253  0.01721187    -0.14300
C2815       C  0.58715855  0.60436310  0.00329104     0.36300
C2816       C  0.59686477  0.59156782  0.98285558    -0.25700
C2817       C  0.62799631  0.60457905  0.97566859    -0.14900
C2818       C  0.64937538  0.63180464  0.98868980     0.37400
N2819       N  0.68094178  0.64719590  0.98090729    -0.89100
H2820       H  0.65680774  0.66485346  0.01939559     0.18500
H2821       H  0.57984164  0.57124598  0.97248845     0.18500
N2822       N  0.55532412  0.58947177  0.00997924    -0.88200
H2823       H  0.69396408  0.64926153  0.99813316     0.35900
H2824       H  0.68694988  0.66908005  0.97440962     0.41000
H2825       H  0.54765138  0.60491009  0.00708885     0.40600
H2826       H  0.55268544  0.58326566  0.03051053     0.35500
C2827       C  0.94053708  0.60572516  0.77346967    -0.26200
C2828       C  0.91093860  0.59293430  0.78431438    -0.14300
C2829       C  0.88671745  0.58869760  0.76734282     0.36300
C2830       C  0.89243948  0.59674813  0.73962785    -0.25700
C2831       C  0.92197017  0.60848218  0.72865114    -0.14900
C2832       C  0.94631444  0.61346222  0.74590620     0.37400
N2833       N  0.97682239  0.62613953  0.73527433    -0.89100
H2834       H  0.95928997  0.60926854  0.78656113     0.18500
H2835       H  0.87357657  0.59269977  0.72646914     0.18500
N2836       N  0.85653215  0.57663286  0.77819707    -0.88200
H2837       H  0.99203708  0.62800841  0.75057272     0.35900
H2838       H  0.98381976  0.64824936  0.72878043     0.41000
H2839       H  0.84190205  0.55694941  0.76725654     0.40600
H2840       H  0.84956773  0.59256220  0.77487397     0.35500
C2841       C  0.98232163  0.61721404  0.47713881    -0.26200
C2842       C  0.51586805  0.63366894  0.48067532    -0.14300
C2843       C  0.52989294  0.64048923  0.50654461     0.36300
C2844       C  0.51173785  0.63279072  0.53011164    -0.25700
C2845       C  0.97954831  0.62102320  0.52634226    -0.14900
C2846       C  0.96468326  0.61009248  0.50120808     0.37400
N2847       N  0.93188052  0.59282081  0.49998755    -0.89100
H2848       H  0.97068089  0.60952699  0.45787667     0.18500
H2849       H  0.52316168  0.63927764  0.54962830     0.18500
N2850       N  0.56242200  0.65613033  0.50966566    -0.88200
H2851       H  0.92453668  0.58628176  0.47997789     0.35900
H2852       H  0.92366109  0.60717732  0.50601948     0.41000
H2853       H  0.57177508  0.67691945  0.49943502     0.40600
H2854       H  0.57069328  0.64292794  0.50085666     0.35500
C2855       C  0.60152729  0.69576833  0.23503828    -0.26200
C2856       C  0.58641566  0.66794546  0.22082531    -0.14300
C2857       C  0.56684224  0.64126444  0.23567369     0.36300
C2858       C  0.56323840  0.64279728  0.26379339    -0.25700
C2859       C  0.57856818  0.67039175  0.27817816    -0.14900
C2860       C  0.59789743  0.69720112  0.26345140     0.37400
N2861       N  0.61432880  0.72586003  0.27718186    -0.89100
H2862       H  0.61648838  0.71654134  0.22414426     0.18500
H2863       H  0.54812824  0.62185733  0.27440970     0.18500
N2864       N  0.54998651  0.61233410  0.22236505    -0.88200
H2865       H  0.60814520  0.74073593  0.26844822     0.35900
H2866       H  0.63766624  0.73459351  0.27369870     0.41000
H2867       H  0.52669785  0.60388470  0.22587904     0.40600
H2868       H  0.55601899  0.59740686  0.23124270     0.35500
C2869       C  0.67343615  0.56317051  0.76642080    -0.26200
C2870       C  0.67186611  0.58766527  0.77836158    -0.14300
C2871       C  0.67102468  0.60929706  0.76081630     0.36300
C2872       C  0.67197340  0.60607341  0.73256003    -0.25700
C2873       C  0.67358136  0.58163075  0.72062247    -0.14900
C2874       C  0.67419914  0.55985229  0.73813455     0.37400
N2875       N  0.67582871  0.53420976  0.72810586    -0.89100
H2876       H  0.67403935  0.54610564  0.77915352     0.18500
H2877       H  0.67112210  0.62300047  0.71982006     0.18500
N2878       N  0.66891844  0.63469753  0.77076570    -0.88200
H2879       H  0.69535677  0.54200929  0.71600694     0.35900
H2880       H  0.65635023  0.52057733  0.71645517     0.41000
H2881       H  0.68802797  0.64826022  0.78283891     0.40600
H2882       H  0.64899889  0.62664552  0.78237002     0.35500
C2883       C  0.77414681  0.56086747  0.63495701    -0.26200
C2884       C  0.76062912  0.56158874  0.61032963    -0.14300
C2885       C  0.77728349  0.56633146  0.58580023     0.36300
C2886       C  0.80780471  0.57258681  0.58671247    -0.25700
C2887       C  0.82221018  0.57462143  0.61162480    -0.14900
C2888       C  0.80461177  0.56760830  0.63595311     0.37400
N2889       N  0.81696992  0.56720206  0.66210045    -0.89100
H2890       H  0.76162324  0.55697721  0.65386255     0.18500
H2891       H  0.82082900  0.57736493  0.56801608     0.18500
N2892       N  0.76334353  0.56547868  0.56007648    -0.88200
H2893       H  0.83391434  0.58922101  0.66734720     0.35900
H2894       H  0.82647815  0.55310570  0.66105223     0.41000
H2895       H  0.74502718  0.54337952  0.55734249     0.40600
H2896       H  0.77858963  0.56958867  0.54407031     0.35500
C2897       C  0.58474020  0.62213723  0.65204821    -0.26200
C2898       C  0.59271256  0.61846468  0.62543134    -0.14300
C2899       C  0.57846946  0.62356357  0.60307907     0.36300
C2900       C  0.55523162  0.63044830  0.60779627    -0.25700
C2901       C  0.54529943  0.63130384  0.63428577    -0.14900
C2902       C  0.56052176  0.62772008  0.65673107     0.37400
N2903       N  0.55100707  0.62919458  0.68404155    -0.89100
H2904       H  0.59596590  0.61850683  0.66921473     0.18500
H2905       H  0.54313842  0.63276222  0.59066224     0.18500
N2906       N  0.58696176  0.62075081  0.57572505    -0.88200
H2907       H  0.56525477  0.62706980  0.69818481     0.35900
H2908       H  0.52919794  0.61042772  0.68697358     0.41000
H2909       H  0.60968425  0.63783672  0.57286814     0.40600
H2910       H  0.57393174  0.62475216  0.56160881     0.35500
C2911       C  0.59373172  0.99711375  0.48733824    -0.26200
C2912       C  0.61104389  0.98369433  0.47930574    -0.14300
C2913       C  0.64058110  0.99532392  0.49046683     0.36300
C2914       C  0.65318059  0.51266687  0.51424982    -0.25700
C2915       C  0.63806820  0.52894757  0.51990150    -0.14900
C2916       C  0.61079985  0.52107780  0.50575484     0.37400
N2917       N  0.59485941  0.53738721  0.51087923    -0.89100
H2918       H  0.57132527  0.98896705  0.47850452     0.18500
H2919       H  0.67363285  0.51799898  0.52560221     0.18500
N2920       N  0.65960940  0.98332425  0.48215237    -0.88200
H2921       H  0.57510761  0.52874497  0.49897409     0.35900
H2922       H  0.60912037  0.55988213  0.50470567     0.41000
H2923       H  0.66538928  0.97540021  0.49948227     0.40600
H2924       H  0.67972758  0.00110412  0.47391975     0.35500
C2925       C  0.60693972  0.54454292  0.40655191    -0.26200
C2926       C  0.61278583  0.53632701  0.38081399    -0.14300
C2927       C  0.61561174  0.55438625  0.35798314     0.36300
C2928       C  0.61017567  0.57872071  0.36123922    -0.25700
C2929       C  0.60185285  0.58541920  0.38663530    -0.14900
C2930       C  0.60138638  0.56867911  0.40973313     0.37400
N2931       N  0.59311306  0.57401514  0.43624732    -0.89100
H2932       H  0.60451275  0.53063337  0.42414880     0.18500
H2933       H  0.61102142  0.59162557  0.34339180     0.18500
N2934       N  0.60681517  0.03855305  0.32706913    -0.88200
H2935       H  0.57141910  0.57176950  0.43518889     0.35900
H2936       H  0.60897660  0.59615003  0.44228198     0.41000
H2937       H  0.61183148  0.02098938  0.32688367     0.40600
H2938       H  0.62397689  0.05618196  0.31559687     0.35500
C2939       C  0.58577656  0.78372642  0.40447528    -0.26200
C2940       C  0.55700894  0.75913829  0.39713132    -0.14300
C2941       C  0.53155672  0.76354303  0.39683428     0.36300
C2942       C  0.53590725  0.79284954  0.40187506    -0.25700
C2943       C  0.56498443  0.81765044  0.40792201    -0.14900
C2944       C  0.58995457  0.81263740  0.40997079     0.37400
N2945       N  0.62020784  0.83691365  0.41593516    -0.89100
H2946       H  0.60546687  0.78063975  0.40538168     0.18500
H2947       H  0.51677508  0.79669799  0.39987386     0.18500
N2948       N  0.00243472  0.73986476  0.38173007    -0.88200
H2949       H  0.61985947  0.84608551  0.43490506     0.35900
H2950       H  0.62660426  0.85384815  0.40116197     0.41000
H2951       H  0.00427283  0.73447039  0.36150878     0.40600
H2952       H  0.98674763  0.74755439  0.38188122     0.35500
C2953       C  0.60400471  0.93973237  0.26773864    -0.26200
C2954       C  0.60030493  0.91605586  0.28476203    -0.14300
C2955       C  0.59337931  0.88783300  0.27298224     0.36300
C2956       C  0.58828002  0.88332562  0.24467292    -0.25700
C2957       C  0.58964696  0.90633905  0.22798553    -0.14900
C2958       C  0.59860965  0.93509412  0.23961839     0.37400
N2959       N  0.60232040  0.95977318  0.22288747    -0.89100
H2960       H  0.60966504  0.96156317  0.27643846     0.18500
H2961       H  0.58220464  0.86147715  0.23577802     0.18500
N2962       N  0.59117323  0.86375710  0.28988344    -0.88200
H2963       H  0.62478227  0.97768803  0.22507247     0.35900
H2964       H  0.58765903  0.96711917  0.23017527     0.41000
H2965       H  0.61278735  0.87115731  0.29824835     0.40600
H2966       H  0.58581471  0.84450292  0.27817077     0.35500
C2967       C  0.89670902  0.84525824  0.74706843    -0.26200
C2968       C  0.90283190  0.82760375  0.72903951    -0.14300
C2969       C  0.91170914  0.80725469  0.73948848     0.36300
C2970       C  0.91465802  0.80540051  0.76782868    -0.25700
C2971       C  0.90818915  0.82284342  0.78587633    -0.14900
C2972       C  0.89911574  0.84305074  0.77533434     0.37400
N2973       N  0.89315155  0.86189726  0.79331212    -0.89100
H2974       H  0.89021858  0.86104677  0.73900689     0.18500
H2975       H  0.92175325  0.79008298  0.77588495     0.18500
N2976       N  0.91900778  0.78955541  0.72132508    -0.88200
H2977       H  0.88637475  0.87511084  0.78232000     0.35900
H2978       H  0.91370972  0.87707734  0.80290510     0.41000
H2979       H  0.89862800  0.77315154  0.71228397     0.40600
H2980       H  0.92729269  0.77754965  0.73221477     0.35500
C2981       C  0.76967703  0.74117964  0.61296550    -0.26200
C2982       C  0.79951242  0.74640329  0.61024256    -0.14300
C2983       C  0.80406042  0.72274001  0.60031623     0.36300
C2984       C  0.77871997  0.69373811  0.59564434    -0.25700
C2985       C  0.74901290  0.68782151  0.60078298    -0.14900
C2986       C  0.74444603  0.71209715  0.60870903     0.37400
N2987       N  0.71447302  0.70783598  0.61273559    -0.89100
H2988       H  0.76594257  0.75934439  0.61982465     0.18500
H2989       H  0.78228532  0.67523336  0.58954304     0.18500
N2990       N  0.83445043  0.72810302  0.59549138    -0.88200
H2991       H  0.70389782  0.69287121  0.62892562     0.35900
H2992       H  0.70172014  0.69822802  0.59504908     0.41000
H2993       H  0.84399099  0.74399803  0.57975835     0.40600
H2994       H  0.83381856  0.70831228  0.58859994     0.35500
C2995       C  0.53022311  0.93656588  0.59304129    -0.26200
C2996       C  0.51726645  0.92029596  0.61706151    -0.14300
C2997       C  0.53535456  0.92852045  0.64107386     0.36300
C2998       C  0.56496029  0.95386814  0.64095838    -0.25700
C2999       C  0.57666714  0.97166954  0.61756527    -0.14900
C3000       C  0.55960828  0.96237938  0.59311797     0.37400
N3001       N  0.57174220  0.98017146  0.56876965    -0.89100
H3002       H  0.51666126  0.93033981  0.57458611     0.18500
H3003       H  0.57795342  0.96091837  0.65973384     0.18500
N3004       N  0.52422860  0.91183131  0.66595800    -0.88200
H3005       H  0.55626624  0.97065637  0.55265499     0.35900
H3006       H  0.59842015  0.46276818  0.57190723     0.41000
H3007       H  0.01063084  0.89117203  0.67314820     0.40600
H3008       H  0.50617517  0.91423443  0.67333628     0.35500
C3009       C  0.94808981  0.73122193  0.59002036    -0.26200
C3010       C  0.95323245  0.72255429  0.61578970    -0.14300
C3011       C  0.95655359  0.74074361  0.63850478     0.36300
C3012       C  0.95247094  0.76586167  0.63565396    -0.25700
C3013       C  0.94422109  0.77294722  0.61048584    -0.14900
C3014       C  0.94334248  0.75621644  0.58722838     0.37400
N3015       N  0.93569241  0.76317195  0.56121418    -0.89100
H3016       H  0.94566346  0.71735934  0.57235391     0.18500
H3017       H  0.95395715  0.77884556  0.65372606     0.18500
N3018       N  0.46461014  0.73015534  0.66369804    -0.88200
H3019       H  0.95351697  0.76768578  0.54775015     0.35900
H3020       H  0.91600108  0.74387415  0.55417388     0.41000
H3021       H  0.45020613  0.72990427  0.67912936     0.40600
H3022       H  0.48635915  0.74893217  0.66694815     0.35500
C3023       C  0.89332062  0.95292562  0.65967308    -0.26200
C3024       C  0.88110935  0.93269389  0.63772065    -0.14300
C3025       C  0.87430067  0.94288572  0.61331409     0.36300
C3026       C  0.88173963  0.97337386  0.61087321    -0.25700
C3027       C  0.89614182  0.99430421  0.63221565    -0.14900
C3028       C  0.90061188  0.98333041  0.65732276     0.37400
N3029       N  0.91319397  0.00300122  0.68046075    -0.89100
H3030       H  0.89853978  0.94541479  0.67851783     0.18500
H3031       H  0.87755644  0.98099950  0.59162257     0.18500
N3032       N  0.86180528  0.92343568  0.59003406    -0.88200
H3033       H  0.93319462  0.00322731  0.68626307     0.35900
H3034       H  0.89754000  0.99380783  0.69649298     0.41000
H3035       H  0.84070160  0.90483176  0.59546438     0.40600
H3036       H  0.87658004  0.91559311  0.58433249     0.35500
C3037       C  0.79280605  0.88057170  0.26166733    -0.26200
C3038       C  0.81663037  0.90307757  0.27736225    -0.14300
C3039       C  0.83841100  0.93036941  0.26463340     0.36300
C3040       C  0.83679115  0.93420877  0.23652584    -0.25700
C3041       C  0.81417216  0.91099804  0.22054813    -0.14900
C3042       C  0.79165565  0.88417039  0.23334265     0.37400
N3043       N  0.76762145  0.86054442  0.21760173    -0.89100
H3044       H  0.77562524  0.85974041  0.27122145     0.18500
H3045       H  0.85421356  0.95491510  0.22697534     0.18500
N3046       N  0.86226567  0.95438036  0.28023501    -0.88200
H3047       H  0.74676050  0.85683390  0.22537934     0.35900
H3048       H  0.76852864  0.84061956  0.22030981     0.41000
H3049       H  0.86054152  0.97390340  0.27789562     0.40600
H3050       H  0.88325381  0.95883985  0.27214768     0.35500
C3051       C  0.83968916  0.87300514  0.50066376    -0.26200
C3052       C  0.86157913  0.88947827  0.48080451    -0.14300
C3053       C  0.89213598  0.89612989  0.48504043     0.36300
C3054       C  0.89980082  0.88611557  0.50900206    -0.25700
C3055       C  0.87767166  0.86920088  0.52883259    -0.14900
C3056       C  0.84720113  0.86273567  0.52431032     0.37400
N3057       N  0.82328009  0.84481001  0.54326743    -0.89100
H3058       H  0.81606974  0.86674167  0.49721156     0.18500
H3059       H  0.92326960  0.89173362  0.51211544     0.18500
N3060       N  0.91596296  0.91292414  0.46554503    -0.88200
H3061       H  0.80639924  0.82567612  0.53303344     0.35900
H3062       H  0.81363341  0.85771524  0.54990822     0.41000
H3063       H  0.90796400  0.91957878  0.44886431     0.40600
H3064       H  0.92337418  0.89840720  0.45819237     0.35500
C3065       C  0.90917329  0.53506942  0.39378520    -0.26200
C3066       C  0.90239104  0.51463370  0.37206422    -0.14300
C3067       C  0.91587612  0.52636535  0.34634032     0.36300
C3068       C  0.93924759  0.55669457  0.34403460    -0.25700
C3069       C  0.94851437  0.57613362  0.36656642    -0.14900
C3070       C  0.93179396  0.56593526  0.39109904     0.37400
N3071       N  0.44044542  0.58281952  0.41439227    -0.89100
H3072       H  0.89594310  0.02541948  0.41099386     0.18500
H3073       H  0.95135439  0.56464240  0.32486831     0.18500
N3074       N  0.90647472  0.50747725  0.32253940    -0.88200
H3075       H  0.42493077  0.57154260  0.43017532     0.35900
H3076       H  0.43587958  0.59952128  0.40736585     0.41000
H3077       H  0.92551871  0.50724988  0.31452123     0.40600
H3078       H  0.89899972  0.51741432  0.30811521     0.35500
C3079       C  0.72561103  0.77455351  0.41492156    -0.26200
C3080       C  0.73843649  0.78446313  0.38892364    -0.14300
C3081       C  0.72258537  0.76739533  0.36597450     0.36300
C3082       C  0.69310056  0.74245847  0.36896976    -0.25700
C3083       C  0.67857440  0.73441986  0.39458988    -0.14900
C3084       C  0.69567302  0.74956773  0.41803263     0.37400
N3085       N  0.68200136  0.74108951  0.44457170    -0.89100
H3086       H  0.73807622  0.78763331  0.43263114     0.18500
H3087       H  0.68079898  0.73042041  0.35079120     0.18500
N3088       N  0.73602563  0.77602269  0.33943248    -0.88200
H3089       H  0.69723839  0.75536942  0.45945831     0.35900
H3090       H  0.67819004  0.71927434  0.44862560     0.41000
H3091       H  0.72163428  0.78025450  0.32725932     0.40600
H3092       H  0.73695092  0.75757250  0.33101920     0.35500
C3093       C  0.92859745  0.87451908  0.39808050    -0.26200
C3094       C  0.91754928  0.87481008  0.37196542    -0.14300
C3095       C  0.93602062  0.87867609  0.34902332     0.36300
C3096       C  0.96561059  0.88359005  0.35277419    -0.25700
C3097       C  0.97753441  0.88608112  0.37907681    -0.14900
C3098       C  0.95861124  0.88070573  0.40183942     0.37400
N3099       N  0.97006106  0.88214310  0.42879258    -0.89100
H3100       H  0.91454221  0.87151190  0.41578406     0.18500
H3101       H  0.98001121  0.88745506  0.33512430     0.18500
N3102       N  0.92546047  0.87805637  0.32185415    -0.88200
H3103       H  0.95589861  0.86137213  0.43839295     0.35900
H3104       H  0.96860022  0.89915057  0.43953914     0.41000
H3105       H  0.92093960  0.89584937  0.31957606     0.40600
H3106       H  0.90509208  0.85747841  0.31904936     0.35500
C3107       C  0.74025248  0.93718015  0.37324042    -0.26200
C3108       C  0.74857776  0.92855882  0.39747959    -0.14300
C3109       C  0.73337882  0.92771609  0.42182577     0.36300
C3110       C  0.70913922  0.93398164  0.42105523    -0.25700
C3111       C  0.69991241  0.94139806  0.39648874    -0.14900
C3112       C  0.71650441  0.94399001  0.37247730     0.37400
N3113       N  0.70824781  0.95189471  0.34705985    -0.89100
H3114       H  0.75215394  0.93815314  0.35455342     0.18500
H3115       H  0.69669061  0.93205170  0.43963086     0.18500
N3116       N  0.74164903  0.91926673  0.44694310    -0.88200
H3117       H  0.72144327  0.95088242  0.33111779     0.35900
H3118       H  0.71382314  0.97463643  0.34848825     0.41000
H3119       H  0.73650614  0.89669383  0.44503929     0.40600
H3120       H  0.72829598  0.91980160  0.46299087     0.35500
loop_ 
_geom_bond_atom_site_label_1 
_geom_bond_atom_site_label_2 
_geom_bond_distance 
_geom_bond_site_symmetry_2 
_ccdc_geom_bond_type 
Zn1           O5   1.954       .  S
Zn1           O6   2.038       .  S
Zn1          O10   1.977       .  S
Zn1          O17   2.015       .  S
Zn2           O5   1.942       .  S
Zn2           O7   1.993       .  S
Zn2           O9   2.020       .  S
Zn2          O13   2.031       .  S
Zn3           O5   1.991       .  S
Zn3           O8   2.105       .  S
Zn3          O11   2.084       .  S
Zn3          O14   2.065       .  S
Zn4           O5   1.931       .  S
Zn4          O12   1.976       .  S
Zn4          O15   1.990       .  S
Zn4          O16   1.998       .  S
O6           C18   1.275       .  A
O7           C19   1.273       .  A
O8           C20   1.285       .  A
O9           C18   1.274       .  A
O10          C20   1.268       .  A
O11          C19   1.284       .  A
O12          C21   1.268       .  A
O13          C22   1.273       .  A
O14          C21   1.279       .  A
O15          C22   1.270       .  A
O16          C23   1.271       .  A
O17          C23   1.274       .  A
C18         C740   1.474       .  S
C19         C768   1.490       .  S
C20         C712   1.489       .  S
C21        C1506   1.496       .  S
C22         C698   1.474       .  S
C23         C754   1.472       .  S
Zn24         O28   1.912       .  S
Zn24         O29   1.942       .  S
Zn24         O33   1.994       .  S
Zn24         O40   2.028       .  S
Zn25         O28   1.996       .  S
Zn25         O30   2.120       .  S
Zn25         O32   2.102       .  S
Zn25         O36   2.049       .  S
Zn26         O28   1.950       .  S
Zn26         O31   2.052       .  S
Zn26         O34   1.969       .  S
Zn26         O37   2.038       .  S
Zn27         O28   1.925       .  S
Zn27         O35   1.998       .  S
Zn27         O38   1.994       .  S
Zn27         O39   2.028       .  S
O29          C41   1.267       .  A
O30          C42   1.287       .  A
O31          C43   1.278       .  A
O32          C41   1.284       .  A
O33          C43   1.272       .  A
O34          C42   1.268       .  A
O35          C44   1.274       .  A
O36          C45   1.279       .  A
O37          C44   1.277       .  A
O38          C45   1.271       .  A
O39          C46   1.273       .  A
O40          C46   1.273       .  A
C41         C673   1.489       .  S
C42         C715   1.505       .  S
C43         C642   1.481       .  S
C44         C684   1.483       .  S
C45        C2216   1.491       .  S
C46         C628   1.479       .  S
Zn47         O51   1.965       .  S
Zn47         O56   2.071       .  S
Zn47         O63   2.078       .  S
Zn47        O832   2.083       .  S
Zn48         O51   1.924       .  S
Zn48         O53   2.010       .  S
Zn48         O55   1.967       .  S
Zn48         O59   1.988       .  S
Zn49         O51   1.925       .  S
Zn49         O54   1.989       .  S
Zn49         O57   2.019       .  S
Zn49         O60   1.998       .  S
Zn50         O51   1.949       .  S
Zn50         O58   2.072       .  S
Zn50         O61   2.067       .  S
Zn50         O62   1.993       .  S
O52        Zn827   2.061       .  S
O52          C64   1.280   1_565  A
O53          C65   1.273       .  A
O54          C66   1.272       .  A
O55         C844   1.269       .  A
O56          C66   1.281       .  A
O57          C65   1.272       .  A
O58          C67   1.283       .  A
O59          C68   1.270       .  A
O60          C67   1.273       .  A
O61          C68   1.279       .  A
O62          C69   1.271       .  A
O63          C69   1.282       .  A
C64         O835   1.270   1_545  A
C64         C586   1.471       .  S
C65        C2317   1.475   1_455  S
C66         C614   1.487       .  S
C67         C603   1.486       .  S
C68         C572   1.499       .  S
C69         C771   1.489       .  S
Zn70         O74   1.914       .  S
Zn70         O79   1.986       .  S
Zn70         O86   2.016       .  S
Zn70        O855   1.960       .  S
Zn71         O74   1.962       .  S
Zn71         O76   2.085       .  S
Zn71         O82   2.057       .  S
Zn71        O858   2.072       .  S
Zn72         O74   1.941       .  S
Zn72         O77   2.069       .  S
Zn72         O80   1.992       .  S
Zn72         O83   2.056       .  S
Zn73         O74   1.927       .  S
Zn73         O81   1.979       .  S
Zn73         O84   1.998       .  S
Zn73         O85   2.016       .  S
O75        Zn850   1.966       .  S
O75          C87   1.271       .  A
O76          C88   1.283       .  A
O77          C89   1.279       .  A
O78        Zn851   2.055       .  S
O78          C87   1.280       .  A
O79          C89   1.269       .  A
O80          C88   1.271       .  A
O81          C90   1.271       .  A
O82          C91   1.279       .  A
O83          C90   1.282       .  A
O84          C91   1.273       .  A
O85          C92   1.271       .  A
O86          C92   1.273       .  A
C87         C659   1.468       .  S
C88         C544   1.500       .  S
C89         C575   1.496       .  S
C90         C645   1.476       .  S
C91         C533   1.497       .  S
C92         C558   1.481       .  S
Zn93         O97   1.979       .  S
Zn93         O98   2.053       .  S
Zn93        O102   2.097       .  S
Zn93        O109   2.077       .  S
Zn94         O97   1.914       .  S
Zn94         O99   1.997       .  S
Zn94        O101   1.988       .  S
Zn94        O105   2.001       .  S
Zn95         O97   1.948       .  S
Zn95        O100   1.973       .  S
Zn95        O106   2.059       .  S
Zn95       O1663   2.051   1_455  S
Zn96         O97   1.921       .  S
Zn96        O104   2.015       .  S
Zn96        O107   2.036       .  S
Zn96        O108   1.976       .  S
O98         C110   1.277       .  A
O99        C1671   1.274   1_455  A
O100        C112   1.269       .  A
O101        C110   1.272       .  A
O102        C112   1.284       .  A
O103      Zn1655   2.033       .  S
O103        C111   1.276       .  A
O104        C113   1.275       .  A
O105        C114   1.273       .  A
O106        C113   1.280       .  A
O107        C114   1.275       .  A
O108        C115   1.271       .  A
O109        C115   1.282       .  A
C110        C589   1.492       .  S
C111       O1659   1.273       .  A
C111        C729   1.478       .  S
C112        C502   1.498       .  S
C113        C600   1.490       .  S
C114        C519   1.489       .  S
C115        C743   1.483       .  S
Zn116       O120   1.936       .  S
Zn116       O121   1.998       .  S
Zn116       O125   1.988       .  S
Zn116       O132   2.006       .  S
Zn117       O120   1.955       .  S
Zn117       O122   1.971       .  S
Zn117       O128   2.025       .  S
Zn117      O1684   2.013       .  S
Zn118       O120   1.987       .  S
Zn118       O123   2.056       .  S
Zn118       O126   2.110       .  S
Zn118       O129   2.084       .  S
Zn119       O120   1.943       .  S
Zn119       O127   1.997       .  S
Zn119       O130   2.030       .  S
Zn119       O131   2.035       .  S
O121       C1693   1.272       .  A
O122        C134   1.267       .  A
O123        C135   1.279       .  A
O124      Zn1677   2.021   1_455  S
O124        C133   1.274       .  A
O125        C135   1.270       .  A
O126        C134   1.285       .  A
O127        C136   1.272       .  A
O128        C137   1.274       .  A
O129        C136   1.283       .  A
O130        C137   1.277       .  A
O131        C138   1.273       .  A
O132        C138   1.272       .  A
C133       O1681   1.272   1_455  A
C133        C561   1.470       .  S
C134        C505   1.493       .  S
C135       C1467   1.495   1_545  S
C136        C547   1.484       .  S
C137        C670   1.476       .  S
C138        C491   1.473       .  S
Zn139       O143   1.916       .  S
Zn139       O144   1.979       .  S
Zn139       O148   1.984       .  S
Zn139       O155   1.987       .  S
Zn140       O143   1.986       .  S
Zn140       O145   2.089       .  S
Zn140       O147   2.039       .  S
Zn140       O151   2.109       .  S
Zn141       O143   1.931       .  S
Zn141       O146   2.045       .  S
Zn141       O149   1.979       .  S
Zn141       O152   2.003       .  S
Zn142       O143   1.951       .  S
Zn142       O150   2.040       .  S
Zn142       O153   1.959       .  S
Zn142       O154   2.037       .  S
O144        C156   1.270       .  A
O145        C157   1.284       .  A
O146        C158   1.276       .  A
O147        C156   1.276       .  A
O148        C158   1.270       .  A
O149        C157   1.271       .  A
O150        C159   1.276       .  A
O151        C160   1.284       .  A
O152        C159   1.273       .  A
O153        C160   1.268       .  A
O154        C161   1.276       .  A
O155        C161   1.271       .  A
C156       C1981   1.486   1_455  S
C157        C449   1.478       .  S
C158        C516   1.488       .  S
C159        C432   1.477       .  S
C160        C474   1.493       .  S
C161        C460   1.476       .  S
Zn162       O166   1.967       .  S
Zn162       O167   2.062       .  S
Zn162       O171   2.052       .  S
Zn162       O178   2.059       .  S
Zn163       O166   1.930       .  S
Zn163       O168   1.984       .  S
Zn163       O170   1.995       .  S
Zn163       O174   2.007       .  S
Zn164       O166   1.934       .  S
Zn164       O169   1.996       .  S
Zn164       O172   2.045       .  S
Zn164       O175   2.033       .  S
Zn165       O166   1.934       .  S
Zn165       O173   2.026       .  S
Zn165       O176   2.012       .  S
Zn165       O177   1.970       .  S
O167        C179   1.279       .  A
O168        C180   1.272       .  A
O169        C181   1.271       .  A
O170        C179   1.273       .  A
O171        C181   1.279       .  A
O172        C180   1.278       .  A
O173        C182   1.272       .  A
O174        C183   1.270       .  A
O175        C182   1.277       .  A
O176        C183   1.274       .  A
O177        C184   1.270       .  A
O178        C184   1.278       .  A
C179        C530   1.496       .  S
C180        C393   1.491       .  S
C181        C362   1.494       .  S
C182        C477   1.499       .  S
C183       C1156   1.466   1_545  S
C184        C407   1.467       .  S
Zn185       O189   1.929       .  S
Zn185       O190   2.047       .  S
Zn185       O194   1.979       .  S
Zn185       O201   2.017       .  S
Zn186       O189   1.930       .  S
Zn186       O191   1.977       .  S
Zn186       O193   2.009       .  S
Zn186       O197   2.005       .  S
Zn187       O189   1.993       .  S
Zn187       O192   2.084       .  S
Zn187       O195   2.061       .  S
Zn187       O198   2.102       .  S
Zn188       O189   1.957       .  S
Zn188       O196   1.979       .  S
Zn188       O200   2.053       .  S
Zn188      O1759   2.025   1_455  S
O190        C202   1.276       .  A
O191        C203   1.270       .  A
O192        C204   1.284       .  A
O193        C202   1.272       .  A
O194        C204   1.271       .  A
O195        C203   1.277       .  A
O196        C205   1.268       .  A
O197       C1766   1.274   1_455  A
O198        C205   1.284       .  A
O199      Zn1748   2.011       .  S
O199        C206   1.273       .  A
O200        C207   1.276       .  A
O201        C207   1.275       .  A
C202        C617   1.485       .  S
C203       C1243   1.494       .  S
C204        C348   1.486       .  S
C205        C323   1.492       .  S
C206       O1757   1.273       .  A
C206        C337   1.469       .  S
C207        C446   1.490       .  S
Zn208       O212   1.936       .  S
Zn208       O213   1.990       .  S
Zn208       O217   1.998       .  S
Zn208       O224   2.017       .  S
Zn209       O212   1.945       .  S
Zn209       O214   1.963       .  S
Zn209       O216   2.059       .  S
Zn209       O220   2.059       .  S
Zn210       O212   1.974       .  S
Zn210       O215   2.076       .  S
Zn210       O218   2.057       .  S
Zn210      O1781   2.047       .  S
Zn211       O212   1.917       .  S
Zn211       O219   1.954       .  S
Zn211       O222   1.985       .  S
Zn211       O223   1.985       .  S
O213        C225   1.272       .  A
O214        C226   1.269       .  A
O215        C227   1.281       .  A
O216        C225   1.282       .  A
O217        C227   1.273       .  A
O218        C226   1.280       .  A
O219       C1788   1.269       .  A
O220        C229   1.278       .  A
O221      Zn1770   2.057       .  S
O221        C228   1.277   1_655  A
O222        C229   1.266       .  A
O223        C230   1.272       .  A
O224        C230   1.271       .  A
C225        C365   1.490       .  S
C226        C309   1.488       .  S
C227        C631   1.498       .  S
C228       O1779   1.267   1_455  A
C228        C379   1.467       .  S
C229        C320   1.493       .  S
C230        C295   1.473       .  S
Zn231       O235   1.945       .  S
Zn231       O236   2.060       .  S
Zn231       O240   1.994       .  S
Zn231       O247   2.055       .  S
Zn232       O235   1.918       .  S
Zn232       O237   1.981       .  S
Zn232       O239   1.993       .  S
Zn232       O243   2.013       .  S
Zn233       O235   1.952       .  S
Zn233       O238   2.063       .  S
Zn233       O244   2.050       .  S
Zn233      O1021   2.066       .  S
Zn234       O235   1.927       .  S
Zn234       O242   1.996       .  S
Zn234       O245   2.012       .  S
Zn234       O246   1.984       .  S
O236        C248   1.279       .  A
O237       C1029   1.270       .  A
O238        C250   1.280       .  A
O239        C248   1.269       .  A
O240        C250   1.272       .  A
O241      Zn1013   2.047       .  S
O241        C249   1.277       .  A
O242        C251   1.272       .  A
O243        C252   1.273       .  A
O244        C251   1.279       .  A
O245        C252   1.271       .  A
O246        C253   1.272       .  A
O247        C253   1.281       .  A
C248        C278   1.496       .  S
C249       O1017   1.270       .  A
C249        C418   1.464   1_565  S
C250        C351   1.494       .  S
C251        C701   1.482       .  S
C252        C334   1.472       .  S
C253        C435   1.479       .  S
Zn254       O258   1.939       .  S
Zn254       O259   1.991       .  S
Zn254       O263   2.053       .  S
Zn254       O270   2.058       .  S
Zn255       O258   1.974       .  S
Zn255       O260   2.073       .  S
Zn255       O262   2.053       .  S
Zn255      O1046   2.054       .  S
Zn256       O258   1.920       .  S
Zn256       O261   1.961       .  S
Zn256       O264   1.965       .  S
Zn256       O267   2.006       .  S
Zn257       O258   1.912       .  S
Zn257       O265   2.017       .  S
Zn257       O269   1.985       .  S
Zn257      O1048   1.939       .  S
O259        C271   1.273       .  A
O260        C272   1.279       .  A
O261        C273   1.270       .  A
O262        C271   1.278       .  A
O263        C273   1.282       .  A
O264        C272   1.269       .  A
O265        C274   1.273       .  A
O266      Zn1035   2.041       .  S
O266        C275   1.277       .  A
O267        C274   1.269       .  A
O268      Zn1037   1.971       .  S
O268        C275   1.272       .  A
O269        C276   1.269       .  A
O270        C276   1.277       .  A
C271        C390   1.494       .  S
C272        C488   1.494       .  S
C273        C306   1.486       .  S
C274       C1964   1.480       .  S
C275        C292   1.469       .  S
C276        C281   1.487       .  S
C277        C278   1.408       .  A
C277       C1062   1.413   1_554  A
C277        H284   1.083       .  S
C278        C279   1.420       .  A
C279       C1060   1.399   1_554  A
C279        N286   1.433       .  S
C280        C281   1.401       .  A
C280       C1059   1.399   1_546  A
C280        H285   1.084       .  S
C281        C282   1.414       .  A
C282       C1057   1.413   1_546  A
C282        N283   1.438       .  S
N283        H287   1.046   1_545  S
N283        H288   1.046       .  S
N286        H289   1.046       .  S
N286        H290   1.044       .  S
C291        C292   1.401       .  A
C291        C296   1.407       .  A
C291        H298   1.084       .  S
C292        C293   1.410       .  A
C293        C294   1.394       .  A
C293        N300   1.434       .  S
C294        C295   1.400       .  A
C294        H299   1.084       .  S
C295        C296   1.413       .  A
C296        N297   1.432       .  S
N297        H301   1.045       .  S
N297        H302   1.046       .  S
N300        H303   1.046       .  S
N300        H304   1.046       .  S
C305        C306   1.412       .  A
C305        C310   1.406       .  A
C305        H312   1.083       .  S
C306        C307   1.406       .  A
C307        C308   1.398       .  A
C307        N314   1.432       .  S
C308        C309   1.411       .  A
C308        H313   1.083       .  S
C309        C310   1.411       .  A
C310       N1871   1.438       .  S
N311       C1870   1.438       .  S
N311        H315   1.046       .  S
N311        H316   1.045       .  S
N314        H317   1.046       .  S
N314        H318   1.046       .  S
C319        C320   1.403       .  A
C319       C1884   1.400   1_556  A
C319        H326   1.084       .  S
C320        C321   1.418       .  A
C321       C1882   1.410   1_556  A
C321        N328   1.432       .  S
C322        C323   1.404       .  A
C322       C1881   1.413   1_454  A
C322        H327   1.084       .  S
C323        C324   1.420   1_455  A
C324       C1879   1.403   1_554  A
C324        N325   1.434       .  S
N325        H330   1.046   1_655  S
N325       H1889   1.044       .  S
N328        H331   1.046       .  S
N328       H1892   1.045       .  S
H329       N1885   1.043       .  S
H332       N1888   1.046       .  S
C333        C334   1.405       .  A
C333        C338   1.403       .  A
C333        H340   1.084       .  S
C334        C335   1.409       .  A
C335        C336   1.404       .  A
C335        N342   1.438       .  S
C336        C337   1.404       .  A
C336        H341   1.084       .  S
C337        C338   1.404       .  A
C338        N339   1.432       .  S
N339        H343   1.045       .  S
N339        H344   1.046       .  S
N342        H345   1.046       .  S
N342        H346   1.046       .  S
C347        C348   1.408       .  A
C347        C352   1.400       .  A
C347        H354   1.084       .  S
C348        C349   1.408       .  A
C349        C350   1.411       .  A
C349        N356   1.437       .  S
C350        C351   1.413       .  A
C350        H355   1.083       .  S
C351        C352   1.415       .  A
C352        N353   1.433       .  S
N353        H357   1.044       .  S
N353        H358   1.046       .  S
N356        H359   1.046       .  S
N356       H1140   1.045       .  S
H360       N1136   1.045       .  S
C361        C362   1.404       .  A
C361        C366   1.408       .  A
C361        H368   1.083       .  S
C362        C363   1.418       .  A
C363        C364   1.404       .  A
C363        N370   1.433       .  S
C364        C365   1.402       .  A
C364        H369   1.084       .  S
C365        C366   1.418       .  A
C366        N367   1.438       .  S
N367        H371   1.045       .  S
N367        H372   1.046       .  S
N370        H373   1.046       .  S
N370        H374   1.046       .  S
C375        C376   1.398       .  A
C375        C380   1.395       .  A
C375        H382   1.084       .  S
C376        C963   1.474       .  S
C376        C377   1.417       .  A
C377        C378   1.404       .  A
C377       N1164   1.432       .  S
C378        C379   1.402       .  A
C378       H1943   1.084       .  S
C379        C380   1.417       .  A
C380        N381   1.440       .  S
N381        H385   1.045       .  S
N381        H386   1.044       .  S
H383       C1938   1.084       .  S
N384       C1157   1.439       .  S
N384        H387   1.043   1_565  S
N384       H1168   1.046       .  S
H388       N1164   1.045       .  S
C389        C390   1.411       .  A
C389        C394   1.399       .  A
C389        H396   1.084       .  S
C390        C391   1.416       .  A
C391        C392   1.400       .  A
C391       N1178   1.432       .  S
C392        C393   1.410       .  A
C392        H397   1.084       .  S
C393        C394   1.415       .  A
C394        N395   1.433       .  S
N395        H399   1.045       .  S
N395        H400   1.045       .  S
N398       C1171   1.433       .  S
N398        H401   1.046       .  S
N398        H402   1.045       .  S
C403        C404   1.400       .  A
C403        C408   1.401       .  A
C403        H410   1.084       .  S
C404       C1834   1.476   1_455  S
C404        C405   1.416       .  A
C405        C406   1.409       .  A
C405        N412   1.438       .  S
C406        C407   1.399       .  A
C406        H411   1.084       .  S
C407        C408   1.411       .  A
C408        N409   1.438       .  S
N409        H413   1.046       .  S
N409        H414   1.045       .  S
N412        H416   1.046       .  S
N412       H1975   1.046       .  S
H415       N1972   1.046       .  S
C417        C418   1.403       .  A
C417        C422   1.407       .  A
C417        H424   1.084       .  S
C418        C419   1.402       .  A
C419        C420   1.402       .  A
C419        N426   1.438       .  S
C420        C421   1.412       .  A
C420        H425   1.083       .  S
C421       C1716   1.488       .  S
C421        C422   1.414       .  A
C422        N423   1.438       .  S
N423        H427   1.046       .  S
N423       H1988   1.046       .  S
N426        H429   1.045       .  S
N426        H430   1.046       .  S
H428       N1983   1.046       .  S
C431        C432   1.405       .  A
C431        C436   1.405       .  A
C431        H438   1.084       .  S
C432        C433   1.407       .  A
C433        C434   1.408       .  A
C433        N440   1.437       .  S
C434        C435   1.408       .  A
C434        H439   1.084       .  S
C435        C436   1.410       .  A
C436        N437   1.438       .  S
N437        H441   1.046       .  S
N437        H442   1.045       .  S
N440        H443   1.045       .  S
N440        H444   1.046       .  S
C445        C446   1.405       .  A
C445        C450   1.403       .  A
C445        H452   1.084       .  S
C446        C447   1.417       .  A
C447        C448   1.411       .  A
C447        N454   1.432   1_455  S
C448        C449   1.407       .  A
C448        H453   1.084       .  S
C449        C450   1.408       .  A
C450        N451   1.438       .  S
N451        H455   1.046       .  S
N451        H456   1.045       .  S
N454        H457   1.045       .  S
N454        H458   1.046   1_655  S
C459        C460   1.404       .  A
C459        C464   1.408       .  A
C459        H466   1.084       .  S
C460        C461   1.408       .  A
C461        C462   1.402       .  A
C461        N468   1.439       .  S
C462        C463   1.409       .  A
C462        H467   1.083       .  S
C463        C983   1.491   1_545  S
C463        C464   1.413       .  A
C464        N465   1.432       .  S
N465        H469   1.046       .  S
N465       H1250   1.046       .  S
N468        H471   1.045       .  S
N468        H472   1.046       .  S
H470       N1245   1.045       .  S
C473        C474   1.405       .  A
C473        C478   1.399   1_554  A
C473        H480   1.084       .  S
C474        C475   1.415       .  A
C475        C476   1.413   1_554  A
C475        N482   1.432       .  S
C476        C477   1.414       .  A
C476        H481   1.083       .  S
C477        C478   1.413       .  A
C478        N479   1.433       .  S
N479        H483   1.046   1_556  S
N479        H484   1.046       .  S
N482        H485   1.045       .  S
N482        H486   1.046       .  S
C487        C488   1.412       .  A
C487        C492   1.401       .  A
C487        H494   1.083       .  S
C488        C489   1.416       .  A
C489        C490   1.413       .  A
C489        N496   1.437       .  S
C490        C491   1.404       .  A
C490        H495   1.084       .  S
C491        C492   1.402       .  A
C492        N493   1.438       .  S
N493        H497   1.046       .  S
N493        H498   1.046       .  S
N496        H499   1.045       .  S
N496        H500   1.046       .  S
C501        C506   1.410       .  A
C501       C2062   1.416       .  A
C501        H508   1.079       .  S
C502        C503   1.412       .  A
C502       C2061   1.416   1_455  A
C503        C504   1.403       .  A
C503        N510   1.432       .  S
C504       C2065   1.412   1_455  A
C504        H509   1.081       .  S
C505        C506   1.404       .  A
C505       C2064   1.414       .  A
C506        N507   1.438       .  S
N507        H511   1.045       .  S
N507        H512   1.046       .  S
N510        H513   1.045       .  S
N510        H514   1.045       .  S
C515        C516   1.407       .  A
C515        C520   1.409       .  A
C515        H522   1.083       .  S
C516        C517   1.414       .  A
C517        C518   1.399       .  A
C517        N524   1.434       .  S
C518        C519   1.405       .  A
C518        H523   1.084       .  S
C519        C520   1.412       .  A
C520        N521   1.432       .  S
N521        H525   1.046       .  S
N521        H526   1.045       .  S
N524        H527   1.046       .  S
N524        H528   1.046       .  S
C529        C530   1.410       .  A
C529        C534   1.399       .  A
C529        H536   1.084       .  S
C530        C531   1.416       .  A
C531        C532   1.403       .  A
C531        N538   1.432       .  S
C532        C533   1.412       .  A
C532        H537   1.084       .  S
C533        C534   1.417       .  A
C534        N535   1.432       .  S
N535        H539   1.045       .  S
N535        H540   1.046       .  S
N538        H541   1.046       .  S
N538        H542   1.044       .  S
C543        C544   1.405       .  A
C543        C548   1.404       .  A
C543        H550   1.084       .  S
C544        C545   1.424       .  A
C545        C546   1.411       .  A
C545        N552   1.438       .  S
C546        C547   1.398       .  A
C546        H551   1.084       .  S
C547        C548   1.417       .  A
C548        N549   1.433       .  S
N549        H553   1.044       .  S
N549        H554   1.046       .  S
N552        H555   1.045       .  S
N552        H556   1.046       .  S
C557        C558   1.408       .  A
C557        C562   1.405       .  A
C557        H564   1.084       .  S
C558        C559   1.412       .  A
C559        C560   1.404       .  A
C559        N566   1.438       .  S
C560        C561   1.402       .  A
C560        H565   1.081       .  S
C561        C562   1.402       .  A
C562        N563   1.431       .  S
N563        H567   1.046       .  S
N563        H568   1.045       .  S
N566        H569   1.045       .  S
N566        H570   1.046       .  S
C571        C572   1.409       .  A
C571       C1356   1.408       .  A
C571        H578   1.083       .  S
C572        C573   1.417       .  A
C573       C1354   1.413       .  A
C573        N580   1.437       .  S
C574        C575   1.407       .  A
C574       C1353   1.413   1_545  A
C574        H579   1.083       .  S
C575        C576   1.418       .  A
C576       C1351   1.406   1_545  A
C576        N577   1.438       .  S
N577        H581   1.046   1_545  S
N577        H582   1.045       .  S
N580        H583   1.045       .  S
N580        H584   1.046       .  S
C585        C586   1.405       .  A
C585        C590   1.402       .  A
C585        H592   1.085       .  S
C586        C587   1.410       .  A
C587        C588   1.401       .  A
C587       N1374   1.439       .  S
C588        C589   1.411       .  A
C588        H593   1.084       .  S
C589        C590   1.417       .  A
C590        N591   1.432       .  S
N591        H595   1.045       .  S
N591        H596   1.045       .  S
N594       C1367   1.438       .  S
N594        H597   1.043       .  S
N594        H598   1.046       .  S
C599        C600   1.408       .  A
C599        C604   1.402       .  A
C599        H606   1.084       .  S
C600        C601   1.411       .  A
C601        C602   1.412       .  A
C601       N2168   1.437       .  S
C602        C603   1.408       .  A
C602        H607   1.084       .  S
C603        C604   1.413       .  A
C604        N605   1.433       .  S
N605        H609   1.046       .  S
N605        H610   1.045       .  S
N608       C2161   1.437       .  S
N608        H611   1.047       .  S
N608        H612   1.045       .  S
C613        C614   1.402       .  A
C613        C618   1.407       .  A
C613        H620   1.084       .  S
C614        C615   1.418       .  A
C615        C616   1.409       .  A
C615        N622   1.438       .  S
C616        C617   1.401       .  A
C616        H621   1.084       .  S
C617        C618   1.414       .  A
C618        N619   1.433       .  S
N619        H623   1.046       .  S
N619        H624   1.045       .  S
N622        H625   1.046       .  S
N622        H626   1.045       .  S
C627        C628   1.405       .  A
C627        C632   1.413       .  A
C627        H634   1.084       .  S
C628        C629   1.405       .  A
C629        C630   1.406       .  A
C629        N636   1.438       .  S
C630        C631   1.412       .  A
C630        H635   1.083       .  S
C631        C632   1.416       .  A
C632        N633   1.437       .  S
N633        H637   1.046       .  S
N633        H638   1.045       .  S
N636        H639   1.045       .  S
N636        H640   1.046       .  S
C641        C642   1.401       .  A
C641        C646   1.402       .  A
C641        H648   1.084       .  S
C642        C643   1.416       .  A
C643        C644   1.404       .  A
C643        N650   1.439       .  S
C644        C645   1.399       .  A
C644        H649   1.084       .  S
C645        C646   1.418       .  A
C646        N647   1.433       .  S
N647        H651   1.044       .  S
N647        H652   1.045       .  S
N650        H653   1.045       .  S
N650        H654   1.046       .  S
C655        C656   1.402       .  A
C655        C660   1.402       .  A
C655        H662   1.084       .  S
C656       C1605   1.481   1_455  S
C656        C657   1.423       .  A
C657        C658   1.401       .  A
C657        N664   1.433       .  S
C658        C659   1.397       .  A
C658        H663   1.084       .  S
C659        C660   1.412       .  A
C660        N661   1.439       .  S
N661        H665   1.046       .  S
N661       H1446   1.046       .  S
N664        H668   1.044       .  S
N664       H2227   1.045       .  S
H666       N1441   1.045       .  S
H667       N2224   1.046       .  S
C669        C670   1.408       .  A
C669        C674   1.414       .  A
C669        H676   1.084       .  S
C670        C671   1.401       .  A
C671        C672   1.396       .  A
C671       N2238   1.433       .  S
C672        C673   1.411       .  A
C672        H677   1.084       .  S
C673        C674   1.409       .  A
C674        N675   1.431       .  S
N675        H679   1.046       .  S
N675        H680   1.045       .  S
N678       C2231   1.433       .  S
N678        H681   1.045       .  S
N678        H682   1.046       .  S
C683        C684   1.400       .  A
C683        C688   1.400       .  A
C683        H690   1.084       .  S
C684        C685   1.417       .  A
C685        C686   1.404       .  A
C685        N692   1.431       .  S
C686        C687   1.406       .  A
C686        H691   1.083       .  S
C687        C915   1.494       .  S
C687        C688   1.419       .  A
C688        N689   1.433       .  S
N689        H693   1.046       .  S
N689        H694   1.046       .  S
N692        H695   1.045       .  S
N692        H696   1.045       .  S
C697        C698   1.400       .  A
C697        C702   1.406       .  A
C697        H704   1.084       .  S
C698        C699   1.410       .  A
C699        C700   1.401       .  A
C699        N706   1.433       .  S
C700        C701   1.402       .  A
C700        H705   1.084       .  S
C701        C702   1.416       .  A
C702        N703   1.432       .  S
N703        H707   1.046       .  S
N703        H708   1.046       .  S
N706        H709   1.045       .  S
N706        H710   1.046       .  S
C711        C712   1.412       .  A
C711        C716   1.413       .  A
C711        H718   1.083       .  S
C712        C713   1.400       .  A
C713        C714   1.406       .  A
C713        N720   1.432       .  S
C714        C715   1.418       .  A
C714        H719   1.082       .  S
C715        C716   1.410       .  A
C716        N717   1.431       .  S
N717        H721   1.046       .  S
N717        H722   1.045       .  S
N720        H723   1.046       .  S
N720        H724   1.046       .  S
C725        C726   1.405       .  A
C725        C730   1.410       .  A
C725       H1512   1.083       .  S
C726        C801   1.492   1_545  S
C726        C727   1.418       .  A
C727        C728   1.401       .  A
C727        N734   1.433       .  S
C728        C729   1.398       .  A
C728        H733   1.084       .  S
C729        C730   1.413       .  A
C730       N2291   1.435       .  S
N731       C2290   1.436       .  S
N731        H735   1.046       .  S
N731        H736   1.045       .  S
H732       C1505   1.083       .  S
N734        H737   1.045       .  S
N734        H738   1.046       .  S
C739        C740   1.405       .  A
C739        C744   1.412       .  A
C739        H746   1.084       .  S
C740        C741   1.402       .  A
C741        C742   1.401       .  A
C741        N748   1.433       .  S
C742        C743   1.408       .  A
C742        H747   1.084       .  S
C743        C744   1.411       .  A
C744        N745   1.437       .  S
N745        H749   1.046       .  S
N745        H750   1.045       .  S
N748        H751   1.046       .  S
N748        H752   1.046       .  S
C753        C754   1.404       .  A
C753        C758   1.401       .  A
C753        H760   1.084       .  S
C754        C755   1.412       .  A
C755        C756   1.400       .  A
C755        N762   1.433       .  S
C756        C757   1.405       .  A
C756        H761   1.084       .  S
C757       C1625   1.473       .  S
C757        C758   1.406       .  A
C758        N759   1.433       .  S
N759        H763   1.046       .  S
N759        H764   1.046       .  S
N762        H765   1.044       .  S
N762        H766   1.045       .  S
C767        C768   1.409       .  A
C767        C772   1.405       .  A
C767        H774   1.084       .  S
C768        C769   1.410       .  A
C769        C770   1.413       .  A
C769        N776   1.437       .  S
C770        C771   1.411       .  A
C770        H775   1.084       .  S
C771        C772   1.407       .  A
C772        N773   1.432       .  S
N773        H777   1.046       .  S
N773        H778   1.045       .  S
N776        H779   1.045       .  S
N776        H780   1.046       .  S
Zn781       O785   1.953       .  S
Zn781       O786   2.051       .  S
Zn781       O790   1.989       .  S
Zn781       O797   2.024       .  S
Zn782       O785   1.936       .  S
Zn782       O787   1.983       .  S
Zn782       O789   2.020       .  S
Zn782       O793   2.030       .  S
Zn783       O785   1.985       .  S
Zn783       O788   2.101       .  S
Zn783       O791   2.075       .  S
Zn783       O794   2.062       .  S
Zn784       O785   1.933       .  S
Zn784       O792   1.984       .  S
Zn784       O795   2.003       .  S
Zn784       O796   2.001       .  S
O786        C798   1.277       .  A
O787        C799   1.272       .  A
O788        C800   1.285       .  A
O789        C798   1.274       .  A
O790        C800   1.269       .  A
O791        C799   1.283       .  A
O792        C801   1.269       .  A
O793        C802   1.274       .  A
O794        C801   1.278       .  A
O795        C802   1.271       .  A
O796        C803   1.273       .  A
O797        C803   1.276       .  A
C798       C1520   1.479       .  S
C799       C1548   1.482       .  S
C800       C1492   1.493       .  S
C802       C1478   1.479       .  S
C803       C1534   1.472       .  S
Zn804       O808   1.913       .  S
Zn804       O809   1.962       .  S
Zn804       O813   1.971       .  S
Zn804       O820   2.006       .  S
Zn805       O808   1.989       .  S
Zn805       O810   2.119       .  S
Zn805       O812   2.116       .  S
Zn805       O816   2.059       .  S
Zn806       O808   1.950       .  S
Zn806       O811   2.039       .  S
Zn806       O814   1.971       .  S
Zn806       O817   2.037       .  S
Zn807       O808   1.926       .  S
Zn807       O815   2.003       .  S
Zn807       O818   1.987       .  S
Zn807       O819   2.032       .  S
O809        C821   1.268       .  A
O810        C822   1.286       .  A
O811        C823   1.277       .  A
O812        C821   1.286       .  A
O813        C823   1.270       .  A
O814        C822   1.268       .  A
O815        C824   1.273       .  A
O816        C825   1.281       .  A
O817        C824   1.277       .  A
O818        C825   1.271       .  A
O819        C826   1.275       .  A
O820        C826   1.271       .  A
C821       C1453   1.489       .  S
C822       C1495   1.505       .  S
C823       C1422   1.476       .  S
C824       C1464   1.481       .  S
C825       C2996   1.482       .  S
C826       C1408   1.486       .  S
Zn827       O831   1.964       .  S
Zn827       O836   2.059       .  S
Zn827       O843   2.069       .  S
Zn828       O831   1.925       .  S
Zn828       O833   2.009       .  S
Zn828       O835   1.974       .  S
Zn828       O839   1.991       .  S
Zn829       O831   1.931       .  S
Zn829       O834   1.990       .  S
Zn829       O837   2.008       .  S
Zn829       O840   1.979       .  S
Zn830       O831   1.944       .  S
Zn830       O838   2.050       .  S
Zn830       O841   2.047       .  S
Zn830       O842   1.975       .  S
O832        C844   1.283       .  A
O833        C845   1.273       .  A
O834        C846   1.270       .  A
O836        C846   1.279       .  A
O837        C845   1.270       .  A
O838        C847   1.280       .  A
O839        C848   1.270       .  A
O840        C847   1.271       .  A
O841        C848   1.276       .  A
O842        C849   1.269       .  A
O843        C849   1.281       .  A
C844       C1366   1.475       .  S
C845       C3097   1.471   1_455  S
C846       C1394   1.477       .  S
C847       C1383   1.474       .  S
C848       C1352   1.489       .  S
C849       C1551   1.489       .  S
Zn850       O854   1.932       .  S
Zn850       O859   1.999       .  S
Zn850       O866   2.030       .  S
Zn851       O854   1.964       .  S
Zn851       O856   2.069       .  S
Zn851       O862   2.058       .  S
Zn852       O854   1.947       .  S
Zn852       O857   2.062       .  S
Zn852       O860   2.004       .  S
Zn852       O863   2.054       .  S
Zn853       O854   1.931       .  S
Zn853       O861   1.966       .  S
Zn853       O864   1.993       .  S
Zn853       O865   2.001       .  S
O855        C867   1.270   1_545  A
O856        C868   1.281       .  A
O857        C869   1.278       .  A
O858        C867   1.281   1_545  A
O859        C869   1.270       .  A
O860        C868   1.272       .  A
O861        C870   1.270       .  A
O862        C871   1.278       .  A
O863        C870   1.282       .  A
O864        C871   1.271       .  A
O865        C872   1.269       .  A
O866        C872   1.274       .  A
C867       C1439   1.469       .  S
C868       C1324   1.494       .  S
C869       C1355   1.496       .  S
C870       C1425   1.469       .  S
C871       C1313   1.497       .  S
C872       C1338   1.475       .  S
Zn873       O877   1.977       .  S
Zn873       O878   2.055       .  S
Zn873       O882   2.106       .  S
Zn873       O889   2.095       .  S
Zn874       O877   1.920       .  S
Zn874       O879   2.007       .  S
Zn874       O881   1.995       .  S
Zn874       O885   2.017       .  S
Zn875       O877   1.949       .  S
Zn875       O880   1.980       .  S
Zn875      O2443   2.024   1_455  S
Zn875       O886   2.028       .  S
Zn876       O877   1.925       .  S
Zn876       O884   2.002       .  S
Zn876       O887   2.032       .  S
Zn876       O888   1.982       .  S
O878        C890   1.278       .  A
O879       C2451   1.275   1_455  A
O880        C892   1.269       .  A
O881        C890   1.273       .  A
O882        C892   1.285       .  A
O883      Zn2435   2.050       .  S
O883        C891   1.279       .  A
O884        C893   1.273       .  A
O885        C894   1.274       .  A
O886        C893   1.276       .  A
O887        C894   1.274       .  A
O888        C895   1.271       .  A
O889        C895   1.285       .  A
C890       C1369   1.488       .  S
C891       O2439   1.273       .  A
C891       C1509   1.483       .  S
C892       C1282   1.500       .  S
C893       C1380   1.477       .  S
C894       C1299   1.493       .  S
C895       C1523   1.491       .  S
Zn896       O900   1.925       .  S
Zn896       O901   1.984       .  S
Zn896       O905   1.971       .  S
Zn896       O912   1.982       .  S
Zn897       O900   1.948       .  S
Zn897       O902   1.972       .  S
Zn897      O2464   2.034       .  S
Zn897       O908   2.033       .  S
Zn898       O900   1.989       .  S
Zn898       O903   2.068       .  S
Zn898       O906   2.117       .  S
Zn898       O909   2.086       .  S
Zn899       O900   1.944       .  S
Zn899       O907   1.990       .  S
Zn899       O910   2.042       .  S
Zn899       O911   2.049       .  S
O901       C2473   1.270       .  A
O902        C914   1.268       .  A
O903        C915   1.279       .  A
O904      Zn2457   2.021   1_455  S
O904        C913   1.274       .  A
O905        C915   1.268       .  A
O906        C914   1.286       .  A
O907        C916   1.271       .  A
O908        C917   1.275       .  A
O909        C916   1.284       .  A
O910        C917   1.278       .  A
O911        C918   1.276       .  A
O912        C918   1.269       .  A
C913       O2461   1.272   1_455  A
C913       C1341   1.471       .  S
C914       C1285   1.498       .  S
C916       C1327   1.490       .  S
C917       C1450   1.480       .  S
C918       C1271   1.477       .  S
Zn919       O923   1.924       .  S
Zn919       O924   1.988       .  S
Zn919       O928   2.005       .  S
Zn919       O935   2.000       .  S
Zn920       O923   1.988       .  S
Zn920       O925   2.102       .  S
Zn920       O927   2.041       .  S
Zn920       O931   2.109       .  S
Zn921       O923   1.916       .  S
Zn921       O926   2.026       .  S
Zn921       O929   1.949       .  S
Zn921       O932   1.994       .  S
Zn922       O923   1.951       .  S
Zn922       O930   2.038       .  S
Zn922       O933   1.963       .  S
Zn922       O934   2.030       .  S
O924        C936   1.271       .  A
O925        C937   1.284       .  A
O926        C938   1.274       .  A
O927        C936   1.277       .  A
O928        C938   1.272       .  A
O929        C937   1.267       .  A
O930        C939   1.276       .  A
O931        C940   1.286       .  A
O932        C939   1.272       .  A
O933        C940   1.267       .  A
O934        C941   1.275       .  A
O935        C941   1.273       .  A
C936       C2761   1.478   1_455  S
C937       C1229   1.492       .  S
C938       C1296   1.485       .  S
C939       C1212   1.476       .  S
C940       C1254   1.490       .  S
C941       C1240   1.476       .  S
Zn942       O946   1.951       .  S
Zn942       O947   2.066       .  S
Zn942       O951   2.066       .  S
Zn942       O958   2.052       .  S
Zn943       O946   1.926       .  S
Zn943       O948   1.979       .  S
Zn943       O950   1.992       .  S
Zn943       O954   2.010       .  S
Zn944       O946   1.936       .  S
Zn944       O949   1.997       .  S
Zn944       O952   2.061       .  S
Zn944       O955   2.063       .  S
Zn945       O946   1.919       .  S
Zn945       O953   2.014       .  S
Zn945       O956   2.021       .  S
Zn945       O957   1.985       .  S
O947        C959   1.280       .  A
O948        C960   1.273       .  A
O949        C961   1.271       .  A
O950        C959   1.272       .  A
O951        C961   1.281       .  A
O952        C960   1.282       .  A
O953        C962   1.272       .  A
O954        C963   1.270       .  A
O955        C962   1.281       .  A
O956        C963   1.276       .  A
O957        C964   1.272       .  A
O958        C964   1.278       .  A
C959       C1310   1.499       .  S
C960       C1173   1.494       .  S
C961       C1142   1.496       .  S
C962       C1257   1.497       .  S
C964       C1187   1.467       .  S
Zn965       O969   1.937       .  S
Zn965       O970   2.044       .  S
Zn965       O974   1.995       .  S
Zn965       O981   2.038       .  S
Zn966       O969   1.929       .  S
Zn966       O971   1.981       .  S
Zn966       O973   1.998       .  S
Zn966       O977   2.004       .  S
Zn967       O969   1.992       .  S
Zn967       O972   2.081       .  S
Zn967       O975   2.053       .  S
Zn967       O978   2.112       .  S
Zn968       O969   1.941       .  S
Zn968       O976   1.945       .  S
Zn968      O2539   2.007   1_455  S
Zn968       O980   2.007       .  S
O970        C982   1.276       .  A
O971        C983   1.271       .  A
O972        C984   1.284       .  A
O973        C982   1.271       .  A
O974        C984   1.274       .  A
O975        C983   1.277       .  A
O976        C985   1.263       .  A
O977       C2546   1.273   1_455  A
O978        C985   1.285       .  A
O979      Zn2528   2.017       .  S
O979        C986   1.275       .  A
O980        C987   1.271       .  A
O981        C987   1.277       .  A
C982       C1397   1.486       .  S
C984       C1128   1.488       .  S
C985       C1103   1.493       .  S
C986       O2537   1.275       .  A
C986       C1117   1.480       .  S
C987       C1226   1.478       .  S
Zn988       O992   1.944       .  S
Zn988       O993   2.004       .  S
Zn988       O997   2.002       .  S
Zn988      O1004   2.007       .  S
Zn989       O992   1.942       .  S
Zn989       O994   1.974       .  S
Zn989       O996   2.064       .  S
Zn989      O1000   2.066       .  S
Zn990       O992   1.977       .  S
Zn990       O995   2.055       .  S
Zn990       O998   2.050       .  S
Zn990      O2561   2.061       .  S
Zn991       O992   1.921       .  S
Zn991       O999   1.953       .  S
Zn991      O1002   2.007       .  S
Zn991      O1003   1.980       .  S
O993       C1005   1.274       .  A
O994       C1006   1.270       .  A
O995       C1007   1.278       .  A
O996       C1005   1.283       .  A
O997       C1007   1.272       .  A
O998       C1006   1.279       .  A
O999       C2568   1.266       .  A
O1000      C1009   1.280       .  A
O1001     Zn2550   2.055       .  S
O1001      C1008   1.276   1_655  A
O1002      C1009   1.270       .  A
O1003      C1010   1.271       .  A
O1004      C1010   1.270       .  A
C1005      C1145   1.490       .  S
C1006      C1089   1.485       .  S
C1007      C1411   1.478       .  S
C1008      O2559   1.266   1_455  A
C1008      C1159   1.465       .  S
C1009      C1100   1.500       .  S
C1010      C1075   1.467       .  S
Zn1011     O1015   1.944       .  S
Zn1011     O1016   2.054       .  S
Zn1011     O1020   2.004       .  S
Zn1011     O1027   2.047       .  S
Zn1012     O1015   1.921       .  S
Zn1012     O1017   1.976       .  S
Zn1012     O1019   2.000       .  S
Zn1012     O1023   2.024       .  S
Zn1013     O1015   1.949       .  S
Zn1013     O1018   2.057       .  S
Zn1013     O1024   2.042       .  S
Zn1014     O1015   1.928       .  S
Zn1014     O1022   2.005       .  S
Zn1014     O1025   2.021       .  S
Zn1014     O1026   1.995       .  S
O1016      C1028   1.278       .  A
O1018      C1030   1.279       .  A
O1019      C1028   1.270       .  A
O1020      C1030   1.273       .  A
O1021      C1029   1.280       .  A
O1022      C1031   1.273       .  A
O1023      C1032   1.274       .  A
O1024      C1031   1.278       .  A
O1025      C1032   1.271       .  A
O1026      C1033   1.274       .  A
O1027      C1033   1.281       .  A
C1028      C1058   1.501       .  S
C1029      C1198   1.470       .  S
C1030      C1131   1.495       .  S
C1031      C1481   1.482       .  S
C1032      C1114   1.474       .  S
C1033      C1215   1.478       .  S
Zn1034     O1038   1.935       .  S
Zn1034     O1039   1.976       .  S
Zn1034     O1043   2.046       .  S
Zn1034     O1050   2.050       .  S
Zn1035     O1038   1.971       .  S
Zn1035     O1040   2.050       .  S
Zn1035     O1042   2.041       .  S
Zn1036     O1038   1.921       .  S
Zn1036     O1041   1.977       .  S
Zn1036     O1044   1.974       .  S
Zn1036     O1047   1.997       .  S
Zn1037     O1038   1.922       .  S
Zn1037     O1045   2.021       .  S
Zn1037     O1049   1.993       .  S
O1039      C1051   1.270       .  A
O1040      C1052   1.277       .  A
O1041      C1053   1.271       .  A
O1042      C1051   1.276       .  A
O1043      C1053   1.281       .  A
O1044      C1052   1.270       .  A
O1045      C1054   1.274       .  A
O1046      C1055   1.278   1_545  A
O1047      C1054   1.269       .  A
O1048      C1055   1.269   1_545  A
O1049      C1056   1.271       .  A
O1050      C1056   1.277       .  A
C1051      C1170   1.488       .  S
C1052      C1268   1.477       .  S
C1053      C1086   1.482       .  S
C1054      C2744   1.475       .  S
C1055      C1072   1.469       .  S
C1056      C1061   1.493       .  S
C1057      C1058   1.411       .  A
C1057      H1064   1.083       .  S
C1058      C1059   1.424       .  A
C1059      N1066   1.433       .  S
C1060      C1061   1.405       .  A
C1060      H1065   1.084       .  S
C1061      C1062   1.417       .  A
C1062      N1063   1.438       .  S
N1063      H1067   1.046       .  S
N1063      H1068   1.046       .  S
N1066      H1069   1.046       .  S
N1066      H1070   1.044       .  S
C1071      C1072   1.402       .  A
C1071      C1076   1.392       .  A
C1071      H1078   1.085       .  S
C1072      C1073   1.412       .  A
C1073      C1074   1.410       .  A
C1073      N1080   1.437       .  S
C1074      C1075   1.404       .  A
C1074      H1079   1.084       .  S
C1075      C1076   1.409       .  A
C1076      N1077   1.440       .  S
N1077      H1081   1.046       .  S
N1077      H1082   1.045       .  S
N1080      H1083   1.046       .  S
N1080      H1084   1.046       .  S
C1085      C1086   1.409       .  A
C1085      C1090   1.408       .  A
C1085      H1092   1.084       .  S
C1086      C1087   1.406       .  A
C1087      C1088   1.399       .  A
C1087      N1094   1.433       .  S
C1088      C1089   1.409       .  A
C1088      H1093   1.084       .  S
C1089      C1090   1.411       .  A
C1090      N2651   1.438       .  S
N1091      C2650   1.438       .  S
N1091      H1095   1.046       .  S
N1091      H1096   1.046       .  S
N1094      H1097   1.046       .  S
N1094      H1098   1.046       .  S
C1099      C1100   1.404       .  A
C1099      C2664   1.401   1_556  A
C1099      H1106   1.084       .  S
C1100      C1101   1.419       .  A
C1101      C2662   1.414   1_556  A
C1101      N1108   1.432       .  S
C1102      C2661   1.413   1_454  A
C1102      C1103   1.404       .  A
C1102      H1107   1.084       .  S
C1103      C1104   1.423   1_455  A
C1104      C2659   1.399   1_554  A
C1104      N1105   1.434       .  S
N1105      H2669   1.044       .  S
N1105      H1110   1.045   1_655  S
N1108      H1111   1.046       .  S
N1108      H2672   1.046       .  S
H1109      N2665   1.044       .  S
H1112      N2668   1.046       .  S
C1113      C1114   1.404       .  A
C1113      C1118   1.408       .  A
C1113      H1120   1.084       .  S
C1114      C1115   1.406       .  A
C1115      C1116   1.406       .  A
C1115      N1122   1.437       .  S
C1116      C1117   1.407       .  A
C1116      H1121   1.084       .  S
C1117      C1118   1.411       .  A
C1118      N1119   1.437       .  S
N1119      H1123   1.046       .  S
N1119      H1124   1.046       .  S
N1122      H1125   1.046       .  S
N1122      H1126   1.046       .  S
C1127      C1128   1.407       .  A
C1127      C1132   1.400       .  A
C1127      H1134   1.084       .  S
C1128      C1129   1.409       .  A
C1129      C1130   1.412       .  A
C1129      N1136   1.437       .  S
C1130      C1131   1.412       .  A
C1130      H1135   1.083       .  S
C1131      C1132   1.416       .  A
C1132      N1133   1.432       .  S
N1133      H1137   1.045       .  S
N1133      H1138   1.046       .  S
N1136      H1139   1.046       .  S
C1141      C1142   1.405       .  A
C1141      C1146   1.411       .  A
C1141      H1148   1.083       .  S
C1142      C1143   1.418       .  A
C1143      C1144   1.405       .  A
C1143      N1150   1.433       .  S
C1144      C1145   1.402       .  A
C1144      H1149   1.084       .  S
C1145      C1146   1.417       .  A
C1146      N1147   1.438       .  S
N1147      H1151   1.045       .  S
N1147      H1152   1.046       .  S
N1150      H1153   1.046       .  S
N1150      H1154   1.046       .  S
C1155      C1156   1.403       .  A
C1155      C1160   1.405       .  A
C1155      H1162   1.084       .  S
C1156      C1157   1.412       .  A
C1157      C1158   1.394       .  A
C1158      C1159   1.402       .  A
C1158      H2723   1.085       .  S
C1159      C1160   1.415       .  A
C1160      N1161   1.438       .  S
N1161      H1165   1.045       .  S
N1161      H1166   1.044       .  S
H1163      C2718   1.084       .  S
N1164      H1167   1.045       .  S
C1169      C1170   1.409       .  A
C1169      C1174   1.397       .  A
C1169      H1176   1.084       .  S
C1170      C1171   1.414       .  A
C1171      C1172   1.400       .  A
C1172      C1173   1.413       .  A
C1172      H1177   1.084       .  S
C1173      C1174   1.415       .  A
C1174      N1175   1.432       .  S
N1175      H1179   1.044       .  S
N1175      H1180   1.047       .  S
N1178      H1181   1.046   1_545  S
N1178      H1182   1.044       .  S
C1183      C1184   1.401       .  A
C1183      C1188   1.406       .  A
C1183      H1190   1.084       .  S
C1184      C2614   1.476   1_455  S
C1184      C1185   1.415       .  A
C1185      C1186   1.406       .  A
C1185      N1192   1.439       .  S
C1186      C1187   1.398       .  A
C1186      H1191   1.084       .  S
C1187      C1188   1.411       .  A
C1188      N1189   1.438       .  S
N1189      H1193   1.046       .  S
N1189      H1194   1.046       .  S
N1192      H2755   1.046   1_455  S
N1192      H1196   1.046       .  S
H1195      N2752   1.045       .  S
C1197      C1198   1.404       .  A
C1197      C1202   1.406       .  A
C1197      H1204   1.084       .  S
C1198      C1199   1.404       .  A
C1199      C1200   1.405       .  A
C1199      N1206   1.438       .  S
C1200      C1201   1.413       .  A
C1200      H1205   1.083       .  S
C1201      C2496   1.493       .  S
C1201      C1202   1.412       .  A
C1202      N1203   1.432       .  S
N1203      H1207   1.045       .  S
N1203      H2768   1.046       .  S
N1206      H1209   1.045       .  S
N1206      H1210   1.046       .  S
H1208      N2763   1.046       .  S
C1211      C1212   1.404       .  A
C1211      C1216   1.403       .  A
C1211      H1218   1.084       .  S
C1212      C1213   1.407       .  A
C1213      C1214   1.408       .  A
C1213      N1220   1.437       .  S
C1214      C1215   1.408       .  A
C1214      H1219   1.084       .  S
C1215      C1216   1.410       .  A
C1216      N1217   1.438       .  S
N1217      H1221   1.046       .  S
N1217      H1222   1.045       .  S
N1220      H1223   1.046       .  S
N1220      H1224   1.046       .  S
C1225      C1226   1.408       .  A
C1225      C1230   1.414       .  A
C1225      H1232   1.084       .  S
C1226      C1227   1.406       .  A
C1227      C1228   1.395       .  A
C1227      N1234   1.433       .  S
C1228      C1229   1.412       .  A
C1228      H1233   1.084       .  S
C1229      C1230   1.411       .  A
C1230      N1231   1.436       .  S
N1231      H1235   1.046       .  S
N1231      H1236   1.045       .  S
N1234      H1237   1.046       .  S
N1234      H1238   1.045       .  S
C1239      C1240   1.405       .  A
C1239      C1244   1.405       .  A
C1239      H1246   1.084       .  S
C1240      C1241   1.405       .  A
C1241      C1242   1.402       .  A
C1241      N1248   1.438       .  S
C1242      C1243   1.411       .  A
C1242      H1247   1.083       .  S
C1243      C1244   1.419       .  A
C1244      N1245   1.432       .  S
N1245      H1249   1.045       .  S
N1248      H1251   1.046       .  S
N1248      H1252   1.045       .  S
C1253      C1254   1.407       .  A
C1253      C1258   1.409   1_554  A
C1253      H1260   1.084       .  S
C1254      C1255   1.420       .  A
C1255      C1256   1.411   1_554  A
C1255      N1262   1.438       .  S
C1256      C1257   1.409       .  A
C1256      H1261   1.084       .  S
C1257      C1258   1.414       .  A
C1258      N1259   1.439       .  S
N1259      H1263   1.045       .  S
N1259      H1264   1.046       .  S
N1262      H1265   1.043       .  S
N1262      H1266   1.044       .  S
C1267      C1268   1.404       .  A
C1267      C1272   1.400       .  A
C1267      H1274   1.084       .  S
C1268      C1269   1.411       .  A
C1269      C1270   1.411       .  A
C1269      N1276   1.437       .  S
C1270      C1271   1.406       .  A
C1270      H1275   1.084       .  S
C1271      C1272   1.410       .  A
C1272      N1273   1.439       .  S
N1273      H1277   1.046       .  S
N1273      H1278   1.045       .  S
N1276      H1279   1.045       .  S
N1276      H1280   1.046       .  S
C1281      C2842   1.416       .  A
C1281      C1286   1.414       .  A
C1281      H1288   1.082       .  S
C1282      C2841   1.415   1_455  A
C1282      C1283   1.410       .  A
C1283      C1284   1.404       .  A
C1283      N1290   1.432       .  S
C1284      C2845   1.414   1_455  A
C1284      H1289   1.083       .  S
C1285      C2844   1.414       .  A
C1285      C1286   1.407       .  A
C1286      N1287   1.437       .  S
N1287      H1291   1.046       .  S
N1287      H1292   1.045       .  S
N1290      H1293   1.045       .  S
N1290      H1294   1.046       .  S
C1295      C1296   1.406       .  A
C1295      C1300   1.411       .  A
C1295      H1302   1.084       .  S
C1296      C1297   1.409       .  A
C1297      C1298   1.401       .  A
C1297      N1304   1.433       .  S
C1298      C1299   1.407       .  A
C1298      H1303   1.084       .  S
C1299      C1300   1.417       .  A
C1300      N1301   1.438       .  S
N1301      H1305   1.046       .  S
N1301      H1306   1.045       .  S
N1304      H1307   1.045       .  S
N1304      H1308   1.046       .  S
C1309      C1310   1.412       .  A
C1309      C1314   1.402       .  A
C1309      H1316   1.084       .  S
C1310      C1311   1.417       .  A
C1311      C1312   1.401       .  A
C1311      N1318   1.432       .  S
C1312      C1313   1.410       .  A
C1312      H1317   1.084       .  S
C1313      C1314   1.416       .  A
C1314      N1315   1.432       .  S
N1315      H1319   1.045       .  S
N1315      H1320   1.045       .  S
N1318      H1321   1.045       .  S
N1318      H1322   1.045       .  S
C1323      C1324   1.402       .  A
C1323      C1328   1.401       .  A
C1323      H1330   1.084       .  S
C1324      C1325   1.419       .  A
C1325      C1326   1.412       .  A
C1325      N1332   1.438       .  S
C1326      C1327   1.402       .  A
C1326      H1331   1.084       .  S
C1327      C1328   1.422       .  A
C1328      N1329   1.434       .  S
N1329      H1333   1.044       .  S
N1329      H1334   1.045       .  S
N1332      H1335   1.046       .  S
N1332      H1336   1.046       .  S
C1337      C1338   1.405       .  A
C1337      C1342   1.403       .  A
C1337      H1344   1.084       .  S
C1338      C1339   1.409       .  A
C1339      C1340   1.406       .  A
C1339      N1346   1.438       .  S
C1340      C1341   1.404       .  A
C1340      H1345   1.083       .  S
C1341      C1342   1.405       .  A
C1342      N1343   1.432       .  S
N1343      H1347   1.046       .  S
N1343      H1348   1.045       .  S
N1346      H1349   1.046       .  S
N1346      H1350   1.045       .  S
C1351      C1352   1.403       .  A
C1351      H1358   1.084       .  S
C1352      C1353   1.416       .  A
C1353      N1360   1.438       .  S
C1354      C1355   1.407       .  A
C1354      H1359   1.083       .  S
C1355      C1356   1.415       .  A
C1356      N1357   1.438       .  S
N1357      H1361   1.046       .  S
N1357      H1362   1.046       .  S
N1360      H1363   1.045       .  S
N1360      H1364   1.046   1_565  S
C1365      C1366   1.408       .  A
C1365      C1370   1.403       .  A
C1365      H1372   1.085       .  S
C1366      C1367   1.411       .  A
C1367      C1368   1.402       .  A
C1368      C1369   1.409       .  A
C1368      H1373   1.084       .  S
C1369      C1370   1.415       .  A
C1370      N1371   1.433       .  S
N1371      H1375   1.046       .  S
N1371      H1376   1.044       .  S
N1374      H1377   1.042       .  S
N1374      H1378   1.046       .  S
C1379      C1380   1.406       .  A
C1379      C1384   1.397       .  A
C1379      H1386   1.084       .  S
C1380      C1381   1.409       .  A
C1381      C1382   1.408       .  A
C1381      N2948   1.437       .  S
C1382      C1383   1.406       .  A
C1382      H1387   1.084       .  S
C1383      C1384   1.412       .  A
C1384      N1385   1.433       .  S
N1385      H1389   1.045       .  S
N1385      H1390   1.046       .  S
N1388      C2941   1.437       .  S
N1388      H1391   1.045       .  S
N1388      H1392   1.046       .  S
C1393      C1394   1.399       .  A
C1393      C1398   1.404       .  A
C1393      H1400   1.084       .  S
C1394      C1395   1.412       .  A
C1395      C1396   1.409       .  A
C1395      N1402   1.438       .  S
C1396      C1397   1.404       .  A
C1396      H1401   1.083       .  S
C1397      C1398   1.416       .  A
C1398      N1399   1.433       .  S
N1399      H1403   1.045       .  S
N1399      H1404   1.046       .  S
N1402      H1405   1.046       .  S
N1402      H1406   1.045       .  S
C1407      C1408   1.403       .  A
C1407      C1412   1.406       .  A
C1407      H1414   1.084       .  S
C1408      C1409   1.415       .  A
C1409      C1410   1.407       .  A
C1409      N1416   1.433       .  S
C1410      C1411   1.401       .  A
C1410      H1415   1.084       .  S
C1411      C1412   1.413       .  A
C1412      N1413   1.439       .  S
N1413      H1417   1.046       .  S
N1413      H1418   1.046       .  S
N1416      H1419   1.046       .  S
N1416      H1420   1.046       .  S
C1421      C1422   1.401       .  A
C1421      C1426   1.401       .  A
C1421      H1428   1.084       .  S
C1422      C1423   1.417       .  A
C1423      C1424   1.401       .  A
C1423      N1430   1.440       .  S
C1424      C1425   1.397       .  A
C1424      H1429   1.084       .  S
C1425      C1426   1.417       .  A
C1426      N1427   1.433       .  S
N1427      H1431   1.044       .  S
N1427      H1432   1.045       .  S
N1430      H1433   1.045       .  S
N1430      H1434   1.046       .  S
C1435      C1436   1.401       .  A
C1435      C1440   1.400       .  A
C1435      H1442   1.084       .  S
C1436      C2385   1.484   1_455  S
C1436      C1437   1.423       .  A
C1437      C1438   1.403       .  A
C1437      N1444   1.433       .  S
C1438      C1439   1.398       .  A
C1438      H1443   1.084       .  S
C1439      C1440   1.411       .  A
C1440      N1441   1.437       .  S
N1441      H1445   1.046       .  S
N1444      H3007   1.046       .  S
N1444      H1448   1.044       .  S
H1447      N3004   1.046       .  S
C1449      C1450   1.408       .  A
C1449      C1454   1.413       .  A
C1449      H1456   1.084       .  S
C1450      C1451   1.402       .  A
C1451      C1452   1.404       .  A
C1451      N3018   1.432       .  S
C1452      C1453   1.410       .  A
C1452      H1457   1.084       .  S
C1453      C1454   1.410       .  A
C1454      N1455   1.431       .  S
N1455      H1459   1.045       .  S
N1455      H1460   1.046       .  S
N1458      C3011   1.433       .  S
N1458      H1461   1.046       .  S
N1458      H1462   1.046       .  S
C1463      C1464   1.400       .  A
C1463      C1468   1.406       .  A
C1463      H1470   1.084       .  S
C1464      C1465   1.415       .  A
C1465      C1466   1.402       .  A
C1465      N1472   1.432       .  S
C1466      C1467   1.406       .  A
C1466      H1471   1.083       .  S
C1467      C1468   1.422       .  A
C1468      N1469   1.439   1_565  S
N1469      H1473   1.046   1_545  S
N1469      H1474   1.046       .  S
N1472      H1475   1.045       .  S
N1472      H1476   1.046       .  S
C1477      C1478   1.402       .  A
C1477      C1482   1.405       .  A
C1477      H1484   1.084       .  S
C1478      C1479   1.411       .  A
C1479      C1480   1.403       .  A
C1479      N1486   1.433       .  S
C1480      C1481   1.403       .  A
C1480      H1485   1.084       .  S
C1481      C1482   1.413       .  A
C1482      N1483   1.432       .  S
N1483      H1487   1.046       .  S
N1483      H1488   1.046       .  S
N1486      H1489   1.046       .  S
N1486      H1490   1.046       .  S
C1491      C1492   1.413       .  A
C1491      C1496   1.413       .  A
C1491      H1498   1.083       .  S
C1492      C1493   1.408       .  A
C1493      C1494   1.403       .  A
C1493      N1500   1.432       .  S
C1494      C1495   1.417       .  A
C1494      H1499   1.083       .  S
C1495      C1496   1.410       .  A
C1496      N1497   1.432       .  S
N1497      H1501   1.046       .  S
N1497      H1502   1.045       .  S
N1500      H1503   1.045       .  S
N1500      H1504   1.045       .  S
C1505      C1506   1.407       .  A
C1505      C1510   1.412       .  A
C1506      C1507   1.419       .  A
C1507      C1508   1.401       .  A
C1507      N1514   1.434       .  S
C1508      C1509   1.400       .  A
C1508      H1513   1.084       .  S
C1509      C1510   1.413       .  A
C1510      N3071   1.436       .  S
N1511      C3070   1.435       .  S
N1511      H1515   1.045       .  S
N1511      H1516   1.046       .  S
N1514      H1517   1.046       .  S
N1514      H1518   1.046       .  S
C1519      C1520   1.406       .  A
C1519      C1524   1.415       .  A
C1519      H1526   1.084       .  S
C1520      C1521   1.402       .  A
C1521      C1522   1.403       .  A
C1521      N1528   1.433       .  S
C1522      C1523   1.410       .  A
C1522      H1527   1.084       .  S
C1523      C1524   1.414       .  A
C1524      N1525   1.437       .  S
N1525      H1529   1.045       .  S
N1525      H1530   1.045       .  S
N1528      H1531   1.046       .  S
N1528      H1532   1.046       .  S
C1533      C1534   1.403       .  A
C1533      C1538   1.401       .  A
C1533      H1540   1.084       .  S
C1534      C1535   1.412       .  A
C1535      C1536   1.402       .  A
C1535      N1542   1.433       .  S
C1536      C1537   1.405       .  A
C1536      H1541   1.084       .  S
C1537      C2405   1.474       .  S
C1537      C1538   1.406       .  A
C1538      N1539   1.432       .  S
N1539      H1543   1.046       .  S
N1539      H1544   1.046       .  S
N1542      H1545   1.044       .  S
N1542      H1546   1.046       .  S
C1547      C1548   1.407       .  A
C1547      C1552   1.403       .  A
C1547      H1554   1.084       .  S
C1548      C1549   1.408       .  A
C1549      C1550   1.409       .  A
C1549      N1556   1.438       .  S
C1550      C1551   1.413       .  A
C1550      H1555   1.084       .  S
C1551      C1552   1.407       .  A
C1552      N1553   1.432       .  S
N1553      H1557   1.046       .  S
N1553      H1558   1.045       .  S
N1556      H1559   1.046       .  S
N1556      H1560   1.046       .  S
Zn1561     O1565   1.948       .  S
Zn1561     O1566   2.041       .  S
Zn1561     O1570   1.979       .  S
Zn1561     O1577   2.015       .  S
Zn1562     O1565   1.934       .  S
Zn1562     O1567   1.989       .  S
Zn1562     O1569   2.021       .  S
Zn1562     O1573   2.038       .  S
Zn1563     O1565   1.987       .  S
Zn1563     O1568   2.116       .  S
Zn1563     O1571   2.081       .  S
Zn1563     O1574   2.064       .  S
Zn1564     O1565   1.930       .  S
Zn1564     O1572   1.977       .  S
Zn1564     O1575   1.994       .  S
Zn1564     O1576   2.000       .  S
O1566      C1578   1.275       .  A
O1567      C1579   1.273       .  A
O1568      C1580   1.287       .  A
O1569      C1578   1.275       .  A
O1570      C1580   1.268       .  A
O1571      C1579   1.284       .  A
O1572      C1581   1.269       .  A
O1573      C1582   1.275       .  A
O1574      C1581   1.279       .  A
O1575      C1582   1.270       .  A
O1576      C1583   1.273       .  A
O1577      C1583   1.275       .  A
C1578      C2300   1.480       .  S
C1579      C2328   1.491       .  S
C1580      C2272   1.494       .  S
C1581      C3066   1.490       .  S
C1582      C2258   1.480       .  S
C1583      C2314   1.468       .  S
Zn1584     O1588   1.919       .  S
Zn1584     O1589   1.962       .  S
Zn1584     O1593   1.996       .  S
Zn1584     O1600   2.018       .  S
Zn1585     O1588   1.990       .  S
Zn1585     O1590   2.110       .  S
Zn1585     O1592   2.095       .  S
Zn1585     O1596   2.044       .  S
Zn1586     O1588   1.952       .  S
Zn1586     O1591   2.062       .  S
Zn1586     O1594   1.977       .  S
Zn1586     O1597   2.051       .  S
Zn1587     O1588   1.932       .  S
Zn1587     O1595   2.011       .  S
Zn1587     O1598   1.988       .  S
Zn1587     O1599   2.014       .  S
O1589      C1601   1.268       .  A
O1590      C1602   1.285       .  A
O1591      C1603   1.279       .  A
O1592      C1601   1.283       .  A
O1593      C1603   1.273       .  A
O1594      C1602   1.269       .  A
O1595      C1604   1.274       .  A
O1596      C1605   1.278       .  A
O1597      C1604   1.279       .  A
O1598      C1605   1.270       .  A
O1599      C1606   1.273       .  A
O1600      C1606   1.273       .  A
C1601      C2233   1.486       .  S
C1602      C2275   1.504       .  S
C1603      C2202   1.486       .  S
C1604      C2244   1.486       .  S
C1606      C2188   1.483       .  S
Zn1607     O1611   1.960       .  S
Zn1607     O2392   2.069       .  S
Zn1607     O1616   2.068       .  S
Zn1607     O1623   2.072       .  S
Zn1608     O1611   1.920       .  S
Zn1608     O1613   2.018       .  S
Zn1608     O1615   1.967       .  S
Zn1608     O1619   1.998       .  S
Zn1609     O1611   1.923       .  S
Zn1609     O1614   1.981       .  S
Zn1609     O1617   2.005       .  S
Zn1609     O1620   1.973       .  S
Zn1610     O1611   1.945       .  S
Zn1610     O1618   2.063       .  S
Zn1610     O1621   2.067       .  S
Zn1610     O1622   1.995       .  S
O1612     Zn2387   2.079   1_545  S
O1612      C1624   1.282       .  A
O1613      C1625   1.274       .  A
O1614      C1626   1.269       .  A
O1615      C2404   1.271       .  A
O1616      C1626   1.280       .  A
O1617      C1625   1.270       .  A
O1618      C1627   1.283       .  A
O1619      C1628   1.271       .  A
O1620      C1627   1.271       .  A
O1621      C1628   1.279       .  A
O1622      C1629   1.272       .  A
O1623      C1629   1.282       .  A
C1624      O2395   1.270   1_545  A
C1624      C2146   1.476       .  S
C1626      C2174   1.482       .  S
C1627      C2163   1.481       .  S
C1628      C2132   1.504       .  S
C1629      C2331   1.490       .  S
Zn1630     O1634   1.931       .  S
Zn1630     O2415   1.968       .  S
Zn1630     O1639   1.993       .  S
Zn1630     O1646   2.012       .  S
Zn1631     O1634   1.964       .  S
Zn1631     O1636   2.086       .  S
Zn1631     O2418   2.077       .  S
Zn1631     O1642   2.070       .  S
Zn1632     O1634   1.947       .  S
Zn1632     O1637   2.066       .  S
Zn1632     O1640   2.001       .  S
Zn1632     O1643   2.068       .  S
Zn1633     O1634   1.930       .  S
Zn1633     O1641   1.988       .  S
Zn1633     O1644   1.994       .  S
Zn1633     O1645   2.004       .  S
O1635     Zn2410   1.970       .  S
O1635      C1647   1.271       .  A
O1636      C1648   1.284       .  A
O1637      C1649   1.279       .  A
O1638     Zn2411   2.065       .  S
O1638      C1647   1.281       .  A
O1639      C1649   1.269       .  A
O1640      C1648   1.272       .  A
O1641      C1650   1.272       .  A
O1642      C1651   1.280       .  A
O1643      C1650   1.283       .  A
O1644      C1651   1.272       .  A
O1645      C1652   1.269       .  A
O1646      C1652   1.272       .  A
C1647      C2219   1.469       .  S
C1648      C2104   1.498       .  S
C1649      C2135   1.495       .  S
C1650      C2205   1.479       .  S
C1651      C2093   1.502       .  S
C1652      C2118   1.468       .  S
Zn1653     O1657   1.993       .  S
Zn1653     O1658   2.071       .  S
Zn1653     O1662   2.118       .  S
Zn1653     O1669   2.101       .  S
Zn1654     O1657   1.921       .  S
Zn1654     O1659   2.000       .  S
Zn1654     O1661   1.991       .  S
Zn1654     O1665   1.997       .  S
Zn1655     O1657   1.956       .  S
Zn1655     O1660   1.971       .  S
Zn1655     O1666   2.045       .  S
Zn1656     O1657   1.929       .  S
Zn1656     O1664   2.006       .  S
Zn1656     O1667   2.044       .  S
Zn1656     O1668   1.975       .  S
O1658      C1670   1.279       .  A
O1660      C1672   1.269       .  A
O1661      C1670   1.271       .  A
O1662      C1672   1.287       .  A
O1663      C1671   1.279       .  A
O1664      C1673   1.273       .  A
O1665      C1674   1.272       .  A
O1666      C1673   1.276       .  A
O1667      C1674   1.275       .  A
O1668      C1675   1.272       .  A
O1669      C1675   1.285       .  A
C1670      C2149   1.496       .  S
C1671      C2289   1.485       .  S
C1672      C2062   1.504       .  S
C1673      C2160   1.478       .  S
C1674      C2079   1.495       .  S
C1675      C2303   1.493       .  S
Zn1676     O1680   1.937       .  S
Zn1676     O1681   2.004       .  S
Zn1676     O1685   1.992       .  S
Zn1676     O1692   2.004       .  S
Zn1677     O1680   1.955       .  S
Zn1677     O1682   1.963       .  S
Zn1677     O1688   2.028       .  S
Zn1678     O1680   1.991       .  S
Zn1678     O1683   2.066       .  S
Zn1678     O1686   2.109       .  S
Zn1678     O1689   2.091       .  S
Zn1679     O1680   1.941       .  S
Zn1679     O1687   1.994       .  S
Zn1679     O1690   2.035       .  S
Zn1679     O1691   2.034       .  S
O1682      C1694   1.267       .  A
O1683      C1695   1.280       .  A
O1684      C1693   1.273       .  A
O1685      C1695   1.271       .  A
O1686      C1694   1.286       .  A
O1687      C1696   1.271       .  A
O1688      C1697   1.274       .  A
O1689      C1696   1.283       .  A
O1690      C1697   1.277       .  A
O1691      C1698   1.274       .  A
O1692      C1698   1.272       .  A
C1693      C2121   1.474       .  S
C1694      C2065   1.491       .  S
C1695      C3027   1.497   1_545  S
C1696      C2107   1.489       .  S
C1697      C2230   1.477       .  S
C1698      C2051   1.472       .  S
Zn1699     O1703   1.915       .  S
Zn1699     O1704   1.968       .  S
Zn1699     O1708   2.001       .  S
Zn1699     O1715   1.994       .  S
Zn1700     O1703   1.986       .  S
Zn1700     O1705   2.095       .  S
Zn1700     O1707   2.061       .  S
Zn1700     O1711   2.110       .  S
Zn1701     O1703   1.927       .  S
Zn1701     O1706   2.033       .  S
Zn1701     O1709   1.964       .  S
Zn1701     O1712   1.989       .  S
Zn1702     O1703   1.954       .  S
Zn1702     O1710   2.019       .  S
Zn1702     O1713   1.961       .  S
Zn1702     O1714   2.031       .  S
O1704      C1716   1.270       .  A
O1705      C1717   1.284       .  A
O1706      C1718   1.274       .  A
O1707      C1716   1.279       .  A
O1708      C1718   1.271       .  A
O1709      C1717   1.268       .  A
O1710      C1719   1.274       .  A
O1711      C1720   1.285       .  A
O1712      C1719   1.271       .  A
O1713      C1720   1.267       .  A
O1714      C1721   1.274       .  A
O1715      C1721   1.272       .  A
C1717      C2009   1.477       .  S
C1718      C2076   1.494       .  S
C1719      C1992   1.468       .  S
C1720      C2034   1.493       .  S
C1721      C2020   1.477       .  S
Zn1722     O1726   1.957       .  S
Zn1722     O1727   2.064       .  S
Zn1722     O1731   2.061       .  S
Zn1722     O1738   2.056       .  S
Zn1723     O1726   1.931       .  S
Zn1723     O1728   1.991       .  S
Zn1723     O1730   2.000       .  S
Zn1723     O1734   2.007       .  S
Zn1724     O1726   1.943       .  S
Zn1724     O1729   1.997       .  S
Zn1724     O1732   2.056       .  S
Zn1724     O1735   2.055       .  S
Zn1725     O1726   1.926       .  S
Zn1725     O1733   2.011       .  S
Zn1725     O1736   2.022       .  S
Zn1725     O1737   1.978       .  S
O1727      C1739   1.280       .  A
O1728      C1740   1.274       .  A
O1729      C1741   1.271       .  A
O1730      C1739   1.273       .  A
O1731      C1741   1.281       .  A
O1732      C1740   1.281       .  A
O1733      C1742   1.272       .  A
O1734      C1743   1.270       .  A
O1735      C1742   1.279       .  A
O1736      C1743   1.275       .  A
O1737      C1744   1.271       .  A
O1738      C1744   1.278       .  A
C1739      C2090   1.498       .  S
C1740      C1953   1.495       .  S
C1741      C1922   1.492       .  S
C1742      C2037   1.500       .  S
C1743      C2716   1.473   1_545  S
C1744      C1967   1.468       .  S
Zn1745     O1749   1.930       .  S
Zn1745     O1750   2.039       .  S
Zn1745     O1754   1.988       .  S
Zn1745     O1761   2.032       .  S
Zn1746     O1749   1.932       .  S
Zn1746     O1751   1.991       .  S
Zn1746     O1753   1.999       .  S
Zn1746     O1757   2.007       .  S
Zn1747     O1749   1.987       .  S
Zn1747     O1752   2.080       .  S
Zn1747     O1755   2.047       .  S
Zn1747     O1758   2.096       .  S
Zn1748     O1749   1.950       .  S
Zn1748     O1756   1.958       .  S
Zn1748     O1760   2.028       .  S
O1750      C1762   1.276       .  A
O1751      C1763   1.271       .  A
O1752      C1764   1.283       .  A
O1753      C1762   1.272       .  A
O1754      C1764   1.272       .  A
O1755      C1763   1.275       .  A
O1756      C1765   1.265       .  A
O1758      C1765   1.283       .  A
O1759      C1766   1.277       .  A
O1760      C1767   1.273       .  A
O1761      C1767   1.277       .  A
C1762      C2177   1.481       .  S
C1763      C2803   1.493       .  S
C1764      C1908   1.488       .  S
C1765      C1883   1.485       .  S
C1766      C1897   1.477       .  S
C1767      C2006   1.491       .  S
Zn1768     O1772   1.930       .  S
Zn1768     O1773   1.978       .  S
Zn1768     O1777   1.976       .  S
Zn1768     O1784   2.003       .  S
Zn1769     O1772   1.946       .  S
Zn1769     O1774   1.985       .  S
Zn1769     O1776   2.073       .  S
Zn1769     O1780   2.056       .  S
Zn1770     O1772   1.988       .  S
Zn1770     O1775   2.060       .  S
Zn1770     O1778   2.060       .  S
Zn1771     O1772   1.925       .  S
Zn1771     O1779   1.949       .  S
Zn1771     O1782   2.017       .  S
Zn1771     O1783   2.011       .  S
O1773      C1785   1.270       .  A
O1774      C1786   1.271       .  A
O1775      C1787   1.278       .  A
O1776      C1785   1.283       .  A
O1777      C1787   1.269       .  A
O1778      C1786   1.280       .  A
O1780      C1789   1.280       .  A
O1781      C1788   1.276       .  A
O1782      C1789   1.273       .  A
O1783      C1790   1.274       .  A
O1784      C1790   1.269       .  A
C1785      C1925   1.497       .  S
C1786      C1869   1.493       .  S
C1787      C2191   1.476       .  S
C1788      C1939   1.463       .  S
C1789      C1880   1.500       .  S
C1790      C1855   1.470       .  S
Zn1791     O1795   1.942       .  S
Zn1791     O1796   2.053       .  S
Zn1791     O1800   1.991       .  S
Zn1791     O1807   2.046       .  S
Zn1792     O1795   1.930       .  S
Zn1792     O1797   1.957       .  S
Zn1792     O1799   1.991       .  S
Zn1792     O1803   2.015       .  S
Zn1793     O1795   1.968       .  S
Zn1793     O1798   2.075       .  S
Zn1793     O2581   2.058       .  S
Zn1793     O1804   2.052       .  S
Zn1794     O1795   1.930       .  S
Zn1794     O1802   1.991       .  S
Zn1794     O1805   2.019       .  S
Zn1794     O1806   1.977       .  S
O1796      C1808   1.277       .  A
O1797      C2589   1.269       .  A
O1798      C1810   1.281       .  A
O1799      C1808   1.268       .  A
O1800      C1810   1.271       .  A
O1801     Zn2573   2.056       .  S
O1801      C1809   1.279       .  A
O1802      C1811   1.271       .  A
O1803      C1812   1.272       .  A
O1804      C1811   1.279       .  A
O1805      C1812   1.270       .  A
O1806      C1813   1.272       .  A
O1807      C1813   1.280       .  A
C1808      C1838   1.498       .  S
C1809      O2577   1.270       .  A
C1809      C1978   1.465   1_565  S
C1810      C1911   1.494       .  S
C1811      C2261   1.481       .  S
C1812      C1894   1.472       .  S
C1813      C1995   1.478       .  S
Zn1814     O1818   1.945       .  S
Zn1814     O1819   1.989       .  S
Zn1814     O1823   2.065       .  S
Zn1814     O1830   2.064       .  S
Zn1815     O1818   1.973       .  S
Zn1815     O1820   2.066       .  S
Zn1815     O1822   2.050       .  S
Zn1815     O2606   2.055       .  S
Zn1816     O1818   1.921       .  S
Zn1816     O1821   1.967       .  S
Zn1816     O1824   1.975       .  S
Zn1816     O1827   2.006       .  S
Zn1817     O1818   1.913       .  S
Zn1817     O1825   2.019       .  S
Zn1817     O2608   1.954       .  S
Zn1817     O1829   2.013       .  S
O1819      C1831   1.272       .  A
O1820      C1832   1.278       .  A
O1821      C1833   1.271       .  A
O1822      C1831   1.278       .  A
O1823      C1833   1.282       .  A
O1824      C1832   1.270       .  A
O1825      C1834   1.274       .  A
O1826     Zn2595   2.060       .  S
O1826      C1835   1.280       .  A
O1827      C1834   1.270       .  A
O1828     Zn2597   1.961       .  S
O1828      C1835   1.270       .  A
O1829      C1836   1.272       .  A
O1830      C1836   1.279       .  A
C1831      C1950   1.494       .  S
C1832      C2048   1.495       .  S
C1833      C1866   1.489       .  S
C1835      C1852   1.472       .  S
C1836      C1841   1.500       .  S
C1837      C1838   1.409       .  A
C1837      C2622   1.414   1_554  A
C1837      H1844   1.083       .  S
C1838      C1839   1.421       .  A
C1839      C2620   1.400   1_554  A
C1839      N1846   1.433       .  S
C1840      C2619   1.404   1_546  A
C1840      C1841   1.408       .  A
C1840      H1845   1.084       .  S
C1841      C1842   1.417       .  A
C1842      C2617   1.413   1_546  A
C1842      N1843   1.438       .  S
N1843      H1847   1.046       .  S
N1843      H1848   1.046       .  S
N1846      H1849   1.046       .  S
N1846      H1850   1.044       .  S
C1851      C1852   1.403       .  A
C1851      C1856   1.398       .  A
C1851      H1858   1.084       .  S
C1852      C1853   1.412       .  A
C1853      C1854   1.410       .  A
C1853      N1860   1.437       .  S
C1854      C1855   1.403       .  A
C1854      H1859   1.083       .  S
C1855      C1856   1.408       .  A
C1856      N1857   1.439       .  S
N1857      H1861   1.045       .  S
N1857      H1862   1.046       .  S
N1860      H1863   1.045       .  S
N1860      H1864   1.046       .  S
C1865      C1866   1.411       .  A
C1865      C1870   1.405       .  A
C1865      H1872   1.084       .  S
C1866      C1867   1.411       .  A
C1867      C1868   1.407       .  A
C1867      N1874   1.438       .  S
C1868      C1869   1.412       .  A
C1868      H1873   1.083       .  S
C1869      C1870   1.411       .  A
N1871      H1875   1.046       .  S
N1871      H1876   1.046       .  S
N1874      H1877   1.045       .  S
N1874      H1878   1.046       .  S
C1879      C1880   1.406       .  A
C1879      H1886   1.084       .  S
C1880      C1881   1.418       .  A
C1881      N1888   1.432       .  S
C1882      C1883   1.402       .  A
C1882      H1887   1.084       .  S
C1883      C1884   1.419       .  A
C1884      N1885   1.434       .  S
N1885      H1890   1.046       .  S
N1888      H1891   1.046   1_655  S
C1893      C1894   1.403       .  A
C1893      C1898   1.405       .  A
C1893      H1900   1.084       .  S
C1894      C1895   1.407       .  A
C1895      C1896   1.406       .  A
C1895      N1902   1.437       .  S
C1896      C1897   1.406       .  A
C1896      H1901   1.084       .  S
C1897      C1898   1.409       .  A
C1898      N1899   1.432       .  S
N1899      H1903   1.045       .  S
N1899      H1904   1.046       .  S
N1902      H1905   1.046       .  S
N1902      H1906   1.046       .  S
C1907      C1908   1.409       .  A
C1907      C1912   1.402       .  A
C1907      H1914   1.084       .  S
C1908      C1909   1.409       .  A
C1909      C1910   1.410       .  A
C1909      N1916   1.437       .  S
C1910      C1911   1.412       .  A
C1910      H1915   1.084       .  S
C1911      C1912   1.414       .  A
C1912      N1913   1.432       .  S
N1913      H1917   1.044       .  S
N1913      H1918   1.046       .  S
N1916      H1919   1.045       .  S
N1916      H2700   1.046       .  S
H1920      N2696   1.045       .  S
C1921      C1922   1.401       .  A
C1921      C1926   1.404       .  A
C1921      H1928   1.084       .  S
C1922      C1923   1.417       .  A
C1923      C1924   1.407       .  A
C1923      N1930   1.433       .  S
C1924      C1925   1.404       .  A
C1924      H1929   1.083       .  S
C1925      C1926   1.422       .  A
C1926      N1927   1.433       .  S
N1927      H1931   1.046       .  S
N1927      H1932   1.046       .  S
N1930      H1933   1.046       .  S
N1930      H1934   1.045       .  S
C1935      C1936   1.399       .  A
C1935      C1940   1.395       .  A
C1935      H1942   1.085       .  S
C1936      C2523   1.468       .  S
C1936      C1937   1.421       .  A
C1937      C1938   1.402       .  A
C1937      N2724   1.439       .  S
C1938      C1939   1.397       .  A
C1939      C1940   1.416       .  A
C1940      N1941   1.440       .  S
N1941      H1945   1.046       .  S
N1941      H1946   1.044       .  S
N1944      C2717   1.433       .  S
N1944      H1947   1.045       .  S
N1944      H2728   1.046       .  S
H1948      N2724   1.045       .  S
C1949      C1950   1.411       .  A
C1949      C1954   1.399       .  A
C1949      H1956   1.084       .  S
C1950      C1951   1.416       .  A
C1951      C1952   1.400       .  A
C1951      N2738   1.432       .  S
C1952      C1953   1.411       .  A
C1952      H1957   1.084       .  S
C1953      C1954   1.416       .  A
C1954      N1955   1.432       .  S
N1955      H1959   1.046       .  S
N1955      H1960   1.044       .  S
N1958      C2731   1.433       .  S
N1958      H1961   1.046       .  S
N1958      H1962   1.044       .  S
C1963      C1964   1.401       .  A
C1963      C1968   1.402       .  A
C1963      H1970   1.084       .  S
C1964      C1965   1.418       .  A
C1965      C1966   1.409       .  A
C1965      N1972   1.438       .  S
C1966      C1967   1.398       .  A
C1966      H1971   1.084       .  S
C1967      C1968   1.409       .  A
C1968      N1969   1.437       .  S
N1969      H1973   1.045       .  S
N1969      H1974   1.046       .  S
N1972      H1976   1.046       .  S
C1977      C1978   1.402       .  A
C1977      C1982   1.405       .  A
C1977      H1984   1.084       .  S
C1978      C1979   1.402       .  A
C1979      C1980   1.404       .  A
C1979      N1986   1.437       .  S
C1980      C1981   1.411       .  A
C1980      H1985   1.084       .  S
C1981      C1982   1.414       .  A
C1982      N1983   1.438       .  S
N1983      H1987   1.046       .  S
N1986      H1989   1.045       .  S
N1986      H1990   1.046       .  S
C1991      C1992   1.403       .  A
C1991      C1996   1.403       .  A
C1991      H1998   1.083       .  S
C1992      C1993   1.404       .  A
C1993      C1994   1.404       .  A
C1993      N2000   1.437       .  S
C1994      C1995   1.409       .  A
C1994      H1999   1.084       .  S
C1995      C1996   1.411       .  A
C1996      N1997   1.438       .  S
N1997      H2001   1.046       .  S
N1997      H2002   1.046       .  S
N2000      H2003   1.046       .  S
N2000      H2004   1.046       .  S
C2005      C2006   1.404       .  A
C2005      C2010   1.402       .  A
C2005      H2012   1.084       .  S
C2006      C2007   1.420       .  A
C2007      C2008   1.410       .  A
C2007      N2014   1.432       .  S
C2008      C2009   1.404       .  A
C2008      H2013   1.084       .  S
C2009      C2010   1.409       .  A
C2010      N2011   1.438       .  S
N2011      H2015   1.046       .  S
N2011      H2016   1.045       .  S
N2014      H2017   1.045       .  S
N2014      H2018   1.046       .  S
C2019      C2020   1.406       .  A
C2019      C2024   1.409       .  A
C2019      H2026   1.084       .  S
C2020      C2021   1.407       .  A
C2021      C2022   1.401       .  A
C2021      N2028   1.438       .  S
C2022      C2023   1.409       .  A
C2022      H2027   1.083       .  S
C2023      C2543   1.492   1_545  S
C2023      C2024   1.413       .  A
C2024      N2025   1.432       .  S
N2025      H2029   1.046       .  S
N2025      H2810   1.045       .  S
N2028      H2031   1.045       .  S
N2028      H2032   1.046       .  S
H2030      N2805   1.045       .  S
C2033      C2034   1.409       .  A
C2033      C2038   1.406   1_554  A
C2033      H2040   1.084       .  S
C2034      C2035   1.413       .  A
C2035      C2036   1.408   1_554  A
C2035      N2042   1.432       .  S
C2036      C2037   1.412       .  A
C2036      H2041   1.083       .  S
C2037      C2038   1.413       .  A
C2038      N2039   1.433       .  S
N2039      H2043   1.045       .  S
N2039      H2044   1.046       .  S
N2042      H2045   1.045       .  S
N2042      H2046   1.045       .  S
C2047      C2048   1.412       .  A
C2047      C2052   1.402       .  A
C2047      H2054   1.083       .  S
C2048      C2049   1.417       .  A
C2049      C2050   1.412       .  A
C2049      N2056   1.437       .  S
C2050      C2051   1.403       .  A
C2050      H2055   1.084       .  S
C2051      C2052   1.402       .  A
C2052      N2053   1.438       .  S
N2053      H2057   1.046       .  S
N2053      H2058   1.046       .  S
N2056      H2059   1.045       .  S
N2056      H2060   1.046       .  S
C2061      C2066   1.411       .  A
C2061      H2068   1.082       .  S
C2062      C2063   1.412       .  A
C2063      C2064   1.407       .  A
C2063      N2070   1.431       .  S
C2064      H2069   1.083       .  S
C2065      C2066   1.405       .  A
C2066      N2067   1.437       .  S
N2067      H2071   1.045       .  S
N2067      H2072   1.046       .  S
N2070      H2073   1.045       .  S
N2070      H2074   1.045       .  S
C2075      C2076   1.409       .  A
C2075      C2080   1.414       .  A
C2075      H2082   1.083       .  S
C2076      C2077   1.413       .  A
C2077      C2078   1.398       .  A
C2077      N2084   1.433       .  S
C2078      C2079   1.406       .  A
C2078      H2083   1.084       .  S
C2079      C2080   1.417       .  A
C2080      N2081   1.437       .  S
N2081      H2085   1.046       .  S
N2081      H2086   1.045       .  S
N2084      H2087   1.046       .  S
N2084      H2088   1.046       .  S
C2089      C2090   1.411       .  A
C2089      C2094   1.404       .  A
C2089      H2096   1.084       .  S
C2090      C2091   1.416       .  A
C2091      C2092   1.402       .  A
C2091      N2098   1.432       .  S
C2092      C2093   1.412       .  A
C2092      H2097   1.083       .  S
C2093      C2094   1.418       .  A
C2094      N2095   1.432       .  S
N2095      H2099   1.045       .  S
N2095      H2100   1.046       .  S
N2098      H2101   1.046       .  S
N2098      H2102   1.045       .  S
C2103      C2104   1.403       .  A
C2103      C2108   1.402       .  A
C2103      H2110   1.084       .  S
C2104      C2105   1.422       .  A
C2105      C2106   1.414       .  A
C2105      N2112   1.438       .  S
C2106      C2107   1.401       .  A
C2106      H2111   1.084       .  S
C2107      C2108   1.419       .  A
C2108      N2109   1.433       .  S
N2109      H2113   1.044       .  S
N2109      H2114   1.046       .  S
N2112      H2115   1.046       .  S
N2112      H2116   1.046       .  S
C2117      C2118   1.402       .  A
C2117      C2122   1.402       .  A
C2117      H2124   1.084       .  S
C2118      C2119   1.407       .  A
C2119      C2120   1.405       .  A
C2119      N2126   1.438       .  S
C2120      C2121   1.406       .  A
C2120      H2125   1.083       .  S
C2121      C2122   1.407       .  A
C2122      N2123   1.432       .  S
N2123      H2127   1.045       .  S
N2123      H2128   1.046       .  S
N2126      H2129   1.046       .  S
N2126      H2130   1.046       .  S
C2131      C2132   1.411       .  A
C2131      C2916   1.408       .  A
C2131      H2138   1.083       .  S
C2132      C2133   1.418       .  A
C2133      C2914   1.414       .  A
C2133      N2140   1.437       .  S
C2134      C2913   1.409   1_545  A
C2134      C2135   1.406       .  A
C2134      H2139   1.084       .  S
C2135      C2136   1.417       .  A
C2136      C2911   1.411   1_545  A
C2136      N2137   1.438       .  S
N2137      H2141   1.045       .  S
N2137      H2142   1.046       .  S
N2140      H2143   1.046       .  S
N2140      H2144   1.046       .  S
C2145      C2146   1.406       .  A
C2145      C2150   1.404       .  A
C2145      H2152   1.085       .  S
C2146      C2147   1.411       .  A
C2147      C2148   1.404       .  A
C2147      N2934   1.438       .  S
C2148      C2149   1.412       .  A
C2148      H2153   1.084       .  S
C2149      C2150   1.417       .  A
C2150      N2151   1.432       .  S
N2151      H2155   1.046       .  S
N2151      H2156   1.045       .  S
N2154      C2927   1.438       .  S
N2154      H2157   1.042       .  S
N2154      H2158   1.046       .  S
C2159      C2160   1.404       .  A
C2159      C2164   1.397       .  A
C2159      H2166   1.084       .  S
C2160      C2161   1.408       .  A
C2161      C2162   1.410       .  A
C2162      C2163   1.411       .  A
C2162      H2167   1.084       .  S
C2163      C2164   1.412       .  A
C2164      N2165   1.433       .  S
N2165      H2169   1.046       .  S
N2165      H2170   1.045       .  S
N2168      H2171   1.046       .  S
N2168      H2172   1.045   1_455  S
C2173      C2174   1.401       .  A
C2173      C2178   1.404       .  A
C2173      H2180   1.084       .  S
C2174      C2175   1.417       .  A
C2175      C2176   1.407       .  A
C2175      N2182   1.438       .  S
C2176      C2177   1.401       .  A
C2176      H2181   1.084       .  S
C2177      C2178   1.414       .  A
C2178      N2179   1.433       .  S
N2179      H2183   1.045       .  S
N2179      H2184   1.046       .  S
N2182      H2185   1.046       .  S
N2182      H2186   1.046       .  S
C2187      C2188   1.402       .  A
C2187      C2192   1.403       .  A
C2187      H2194   1.084       .  S
C2188      C2189   1.415       .  A
C2189      C2190   1.407       .  A
C2189      N2196   1.432       .  S
C2190      C2191   1.400       .  A
C2190      H2195   1.084       .  S
C2191      C2192   1.413       .  A
C2192      N2193   1.439       .  S
N2193      H2197   1.045       .  S
N2193      H2198   1.046       .  S
N2196      H2199   1.045       .  S
N2196      H2200   1.046       .  S
C2201      C2202   1.403       .  A
C2201      C2206   1.405       .  A
C2201      H2208   1.084       .  S
C2202      C2203   1.418       .  A
C2203      C2204   1.405       .  A
C2203      N2210   1.439       .  S
C2204      C2205   1.399       .  A
C2204      H2209   1.084       .  S
C2205      C2206   1.418       .  A
C2206      N2207   1.433       .  S
N2207      H2211   1.044       .  S
N2207      H2212   1.046       .  S
N2210      H2213   1.046       .  S
N2210      H2214   1.046       .  S
C2215      C2216   1.406       .  A
C2215      C2220   1.406       .  A
C2215      H2222   1.083       .  S
C2216      C2217   1.425       .  A
C2217      C2218   1.400       .  A
C2217      N2224   1.433       .  S
C2218      C2219   1.396       .  A
C2218      H2223   1.084       .  S
C2219      C2220   1.410       .  A
C2220      N2221   1.439       .  S
N2221      H2225   1.046       .  S
N2221      H3006   1.045       .  S
N2224      H2228   1.044       .  S
H2226      N3001   1.046       .  S
C2229      C2230   1.407       .  A
C2229      C2234   1.412       .  A
C2229      H2236   1.084       .  S
C2230      C2231   1.402       .  A
C2231      C2232   1.401       .  A
C2232      C2233   1.409       .  A
C2232      H2237   1.084       .  S
C2233      C2234   1.409       .  A
C2234      N2235   1.431       .  S
N2235      H2239   1.046       .  S
N2235      H2240   1.046       .  S
N2238      H2241   1.046       .  S
N2238      H2242   1.046       .  S
C2243      C2244   1.402       .  A
C2243      C2248   1.407       .  A
C2243      H2250   1.084       .  S
C2244      C2245   1.417       .  A
C2245      C2246   1.404       .  A
C2245      N2252   1.432       .  S
C2246      C2247   1.406       .  A
C2246      H2251   1.083       .  S
C2247      C2475   1.498       .  S
C2247      C2248   1.418       .  A
C2248      N2249   1.433       .  S
N2249      H2253   1.046       .  S
N2249      H2254   1.046       .  S
N2252      H2255   1.045       .  S
N2252      H2256   1.045       .  S
C2257      C2258   1.401       .  A
C2257      C2262   1.405       .  A
C2257      H2264   1.084       .  S
C2258      C2259   1.413       .  A
C2259      C2260   1.403       .  A
C2259      N2266   1.432       .  S
C2260      C2261   1.401       .  A
C2260      H2265   1.084       .  S
C2261      C2262   1.413       .  A
C2262      N2263   1.432       .  S
N2263      H2267   1.045       .  S
N2263      H2268   1.046       .  S
N2266      H2269   1.046       .  S
N2266      H2270   1.046       .  S
C2271      C2272   1.413       .  A
C2271      C2276   1.413       .  A
C2271      H2278   1.082       .  S
C2272      C2273   1.402       .  A
C2273      C2274   1.407       .  A
C2273      N2280   1.432       .  S
C2274      C2275   1.416       .  A
C2274      H2279   1.083       .  S
C2275      C2276   1.410       .  A
C2276      N2277   1.432       .  S
N2277      H2281   1.046       .  S
N2277      H2282   1.046       .  S
N2280      H2283   1.045       .  S
N2280      H2284   1.046       .  S
C2285      C2286   1.408       .  A
C2285      C2290   1.414       .  A
C2285      H3072   1.083       .  S
C2286      C2361   1.498   1_545  S
C2286      C2287   1.419       .  A
C2287      C2288   1.400       .  A
C2287      N2294   1.433       .  S
C2288      C2289   1.400       .  A
C2288      H2293   1.084       .  S
C2289      C2290   1.414       .  A
N2291      H2295   1.045       .  S
N2291      H2296   1.046       .  S
H2292      C3065   1.083       .  S
N2294      H2297   1.046       .  S
N2294      H2298   1.046       .  S
C2299      C2300   1.408       .  A
C2299      C2304   1.418       .  A
C2299      H2306   1.084       .  S
C2300      C2301   1.401       .  A
C2301      C2302   1.399       .  A
C2301      N2308   1.433       .  S
C2302      C2303   1.409       .  A
C2302      H2307   1.084       .  S
C2303      C2304   1.414       .  A
C2304      N2305   1.436       .  S
N2305      H2309   1.046       .  S
N2305      H2310   1.045       .  S
N2308      H2311   1.046       .  S
N2308      H2312   1.045       .  S
C2313      C2314   1.401       .  A
C2313      C2318   1.399       .  A
C2313      H2320   1.083       .  S
C2314      C2315   1.410       .  A
C2315      C2316   1.402       .  A
C2315      N2322   1.432       .  S
C2316      C2317   1.407       .  A
C2316      H2321   1.084       .  S
C2317      C2318   1.407       .  A
C2318      N2319   1.433       .  S
N2319      H2323   1.046       .  S
N2319      H2324   1.046       .  S
N2322      H2325   1.045       .  S
N2322      H2326   1.046       .  S
C2327      C2328   1.409       .  A
C2327      C2332   1.407       .  A
C2327      H2334   1.084       .  S
C2328      C2329   1.410       .  A
C2329      C2330   1.412       .  A
C2329      N2336   1.437       .  S
C2330      C2331   1.411       .  A
C2330      H2335   1.084       .  S
C2331      C2332   1.410       .  A
C2332      N2333   1.438       .  S
N2333      H2337   1.046       .  S
N2333      H2338   1.045       .  S
N2336      H2339   1.045       .  S
N2336      H2340   1.046       .  S
Zn2341     O2345   1.960       .  S
Zn2341     O2346   2.032       .  S
Zn2341     O2350   1.983       .  S
Zn2341     O2357   2.013       .  S
Zn2342     O2345   1.948       .  S
Zn2342     O2347   2.004       .  S
Zn2342     O2349   2.023       .  S
Zn2342     O2353   2.042       .  S
Zn2343     O2345   1.994       .  S
Zn2343     O2348   2.099       .  S
Zn2343     O2351   2.081       .  S
Zn2343     O2354   2.071       .  S
Zn2344     O2345   1.934       .  S
Zn2344     O2352   1.979       .  S
Zn2344     O2355   1.997       .  S
Zn2344     O2356   1.999       .  S
O2346      C2358   1.274       .  A
O2347      C2359   1.274       .  A
O2348      C2360   1.284       .  A
O2349      C2358   1.276       .  A
O2350      C2360   1.268       .  A
O2351      C2359   1.283       .  A
O2352      C2361   1.268       .  A
O2353      C2362   1.274       .  A
O2354      C2361   1.279       .  A
O2355      C2362   1.271       .  A
O2356      C2363   1.271       .  A
O2357      C2363   1.273       .  A
C2358      C3080   1.476       .  S
C2359      C3108   1.488       .  S
C2360      C3052   1.483       .  S
C2362      C3038   1.484       .  S
C2363      C3094   1.470       .  S
Zn2364     O2368   1.899       .  S
Zn2364     O2369   1.952       .  S
Zn2364     O2373   1.979       .  S
Zn2364     O2380   2.002       .  S
Zn2365     O2368   1.982       .  S
Zn2365     O2370   2.117       .  S
Zn2365     O2372   2.098       .  S
Zn2365     O2376   2.040       .  S
Zn2366     O2368   1.941       .  S
Zn2366     O2371   2.051       .  S
Zn2366     O2374   1.959       .  S
Zn2366     O2377   2.040       .  S
Zn2367     O2368   1.922       .  S
Zn2367     O2375   2.002       .  S
Zn2367     O2378   1.995       .  S
Zn2367     O2379   2.024       .  S
O2369      C2381   1.268       .  A
O2370      C2382   1.286       .  A
O2371      C2383   1.279       .  A
O2372      C2381   1.283       .  A
O2373      C2383   1.271       .  A
O2374      C2382   1.266       .  A
O2375      C2384   1.274       .  A
O2376      C2385   1.279       .  A
O2377      C2384   1.278       .  A
O2378      C2385   1.271       .  A
O2379      C2386   1.274       .  A
O2380      C2386   1.270       .  A
C2381      C3013   1.488       .  S
C2382      C3055   1.502       .  S
C2383      C2982   1.481       .  S
C2384      C3024   1.482       .  S
C2386      C2968   1.479       .  S
Zn2387     O2391   1.957       .  S
Zn2387     O2396   2.064       .  S
Zn2387     O2403   2.067       .  S
Zn2388     O2391   1.928       .  S
Zn2388     O2393   2.019       .  S
Zn2388     O2395   1.982       .  S
Zn2388     O2399   2.005       .  S
Zn2389     O2391   1.929       .  S
Zn2389     O2394   1.999       .  S
Zn2389     O2397   2.020       .  S
Zn2389     O2400   1.995       .  S
Zn2390     O2391   1.951       .  S
Zn2390     O2398   2.070       .  S
Zn2390     O2401   2.066       .  S
Zn2390     O2402   2.003       .  S
O2392      C2404   1.282       .  A
O2393      C2405   1.275       .  A
O2394      C2406   1.272       .  A
O2396      C2406   1.281       .  A
O2397      C2405   1.272       .  A
O2398      C2407   1.283       .  A
O2399      C2408   1.272       .  A
O2400      C2407   1.273       .  A
O2401      C2408   1.281       .  A
O2402      C2409   1.272       .  A
O2403      C2409   1.281       .  A
C2404      C2926   1.473       .  S
C2406      C2954   1.485       .  S
C2407      C2943   1.483       .  S
C2408      C2912   1.497       .  S
C2409      C3111   1.496       .  S
Zn2410     O2414   1.932       .  S
Zn2410     O2419   1.999       .  S
Zn2410     O2426   2.023       .  S
Zn2411     O2414   1.967       .  S
Zn2411     O2416   2.079       .  S
Zn2411     O2422   2.056       .  S
Zn2412     O2414   1.944       .  S
Zn2412     O2417   2.061       .  S
Zn2412     O2420   1.991       .  S
Zn2412     O2423   2.063       .  S
Zn2413     O2414   1.931       .  S
Zn2413     O2421   1.979       .  S
Zn2413     O2424   1.990       .  S
Zn2413     O2425   2.002       .  S
O2415      C2427   1.270       .  A
O2416      C2428   1.282       .  A
O2417      C2429   1.278       .  A
O2418      C2427   1.282       .  A
O2419      C2429   1.270       .  A
O2420      C2428   1.271       .  A
O2421      C2430   1.271       .  A
O2422      C2431   1.278       .  A
O2423      C2430   1.282       .  A
O2424      C2431   1.271       .  A
O2425      C2432   1.269       .  A
O2426      C2432   1.274       .  A
C2427      C2999   1.475   1_545  S
C2428      C2884   1.490       .  S
C2429      C2915   1.492       .  S
C2430      C2985   1.476       .  S
C2431      C2873   1.497       .  S
C2432      C2898   1.476       .  S
Zn2433     O2437   1.984       .  S
Zn2433     O2438   2.047       .  S
Zn2433     O2442   2.108       .  S
Zn2433     O2449   2.086       .  S
Zn2434     O2437   1.918       .  S
Zn2434     O2439   1.993       .  S
Zn2434     O2441   1.991       .  S
Zn2434     O2445   2.002       .  S
Zn2435     O2437   1.951       .  S
Zn2435     O2440   1.980       .  S
Zn2435     O2446   2.067       .  S
Zn2436     O2437   1.925       .  S
Zn2436     O2444   2.016       .  S
Zn2436     O2447   2.053       .  S
Zn2436     O2448   1.971       .  S
O2438      C2450   1.277       .  A
O2440      C2452   1.269       .  A
O2441      C2450   1.271       .  A
O2442      C2452   1.286       .  A
O2443      C2451   1.275       .  A
O2444      C2453   1.275       .  A
O2445      C2454   1.273       .  A
O2446      C2453   1.281       .  A
O2447      C2454   1.276       .  A
O2448      C2455   1.271       .  A
O2449      C2455   1.284       .  A
C2450      C2929   1.484       .  S
C2451      C3069   1.475       .  S
C2452      C2842   1.502       .  S
C2453      C2940   1.493       .  S
C2454      C2859   1.496       .  S
C2455      C3083   1.490       .  S
Zn2456     O2460   1.937       .  S
Zn2456     O2461   1.998       .  S
Zn2456     O2465   2.003       .  S
Zn2456     O2472   1.989       .  S
Zn2457     O2460   1.957       .  S
Zn2457     O2462   1.961       .  S
Zn2457     O2468   2.034       .  S
Zn2458     O2460   1.991       .  S
Zn2458     O2463   2.065       .  S
Zn2458     O2466   2.115       .  S
Zn2458     O2469   2.090       .  S
Zn2459     O2460   1.947       .  S
Zn2459     O2467   1.984       .  S
Zn2459     O2470   2.033       .  S
Zn2459     O2471   2.038       .  S
O2462      C2474   1.267       .  A
O2463      C2475   1.279       .  A
O2464      C2473   1.276       .  A
O2465      C2475   1.271       .  A
O2466      C2474   1.286       .  A
O2467      C2476   1.270       .  A
O2468      C2477   1.274       .  A
O2469      C2476   1.284       .  A
O2470      C2477   1.276       .  A
O2471      C2478   1.274       .  A
O2472      C2478   1.271       .  A
C2473      C2901   1.469       .  S
C2474      C2845   1.497       .  S
C2476      C2887   1.491       .  S
C2477      C3010   1.478       .  S
C2478      C2831   1.477       .  S
Zn2479     O2483   1.913       .  S
Zn2479     O2484   1.972       .  S
Zn2479     O2488   1.990       .  S
Zn2479     O2495   1.981       .  S
Zn2480     O2483   1.993       .  S
Zn2480     O2485   2.082       .  S
Zn2480     O2487   2.068       .  S
Zn2480     O2491   2.108       .  S
Zn2481     O2483   1.935       .  S
Zn2481     O2486   2.058       .  S
Zn2481     O2489   1.977       .  S
Zn2481     O2492   1.997       .  S
Zn2482     O2483   1.958       .  S
Zn2482     O2490   2.031       .  S
Zn2482     O2493   1.955       .  S
Zn2482     O2494   2.034       .  S
O2484      C2496   1.269       .  A
O2485      C2497   1.282       .  A
O2486      C2498   1.276       .  A
O2487      C2496   1.279       .  A
O2488      C2498   1.270       .  A
O2489      C2497   1.271       .  A
O2490      C2499   1.275       .  A
O2491      C2500   1.284       .  A
O2492      C2499   1.273       .  A
O2493      C2500   1.267       .  A
O2494      C2501   1.275       .  A
O2495      C2501   1.270       .  A
C2497      C2789   1.474       .  S
C2498      C2856   1.497       .  S
C2499      C2772   1.477       .  S
C2500      C2814   1.491       .  S
C2501      C2800   1.475       .  S
Zn2502     O2506   1.953       .  S
Zn2502     O2507   2.063       .  S
Zn2502     O2511   2.054       .  S
Zn2502     O2518   2.049       .  S
Zn2503     O2506   1.919       .  S
Zn2503     O2508   1.978       .  S
Zn2503     O2510   1.986       .  S
Zn2503     O2514   1.995       .  S
Zn2504     O2506   1.935       .  S
Zn2504     O2509   1.989       .  S
Zn2504     O2512   2.072       .  S
Zn2504     O2515   2.061       .  S
Zn2505     O2506   1.920       .  S
Zn2505     O2513   1.998       .  S
Zn2505     O2516   2.009       .  S
Zn2505     O2517   1.980       .  S
O2507      C2519   1.280       .  A
O2508      C2520   1.272       .  A
O2509      C2521   1.270       .  A
O2510      C2519   1.272       .  A
O2511      C2521   1.280       .  A
O2512      C2520   1.283       .  A
O2513      C2522   1.270       .  A
O2514      C2523   1.269       .  A
O2515      C2522   1.281       .  A
O2516      C2523   1.274       .  A
O2517      C2524   1.271       .  A
O2518      C2524   1.276       .  A
C2519      C2870   1.498       .  S
C2520      C2733   1.499       .  S
C2521      C2702   1.492       .  S
C2522      C2817   1.495       .  S
C2524      C2747   1.466       .  S
Zn2525     O2529   1.935       .  S
Zn2525     O2530   2.050       .  S
Zn2525     O2534   1.982       .  S
Zn2525     O2541   2.025       .  S
Zn2526     O2529   1.926       .  S
Zn2526     O2531   1.984       .  S
Zn2526     O2533   2.011       .  S
Zn2526     O2537   2.022       .  S
Zn2527     O2529   1.990       .  S
Zn2527     O2532   2.075       .  S
Zn2527     O2535   2.059       .  S
Zn2527     O2538   2.107       .  S
Zn2528     O2529   1.945       .  S
Zn2528     O2536   1.970       .  S
Zn2528     O2540   2.027       .  S
O2530      C2542   1.277       .  A
O2531      C2543   1.272       .  A
O2532      C2544   1.283       .  A
O2533      C2542   1.273       .  A
O2534      C2544   1.271       .  A
O2535      C2543   1.278       .  A
O2536      C2545   1.266       .  A
O2538      C2545   1.284       .  A
O2539      C2546   1.272       .  A
O2540      C2547   1.274       .  A
O2541      C2547   1.276       .  A
C2542      C2957   1.488       .  S
C2544      C2688   1.477       .  S
C2545      C2663   1.494       .  S
C2546      C2677   1.467       .  S
C2547      C2786   1.485       .  S
Zn2548     O2552   1.936       .  S
Zn2548     O2553   1.974       .  S
Zn2548     O2557   1.973       .  S
Zn2548     O2564   1.997       .  S
Zn2549     O2552   1.942       .  S
Zn2549     O2554   1.983       .  S
Zn2549     O2556   2.061       .  S
Zn2549     O2560   2.054       .  S
Zn2550     O2552   1.986       .  S
Zn2550     O2555   2.057       .  S
Zn2550     O2558   2.058       .  S
Zn2551     O2552   1.922       .  S
Zn2551     O2559   1.948       .  S
Zn2551     O2562   2.006       .  S
Zn2551     O2563   1.996       .  S
O2553      C2565   1.270       .  A
O2554      C2566   1.271       .  A
O2555      C2567   1.278       .  A
O2556      C2565   1.282       .  A
O2557      C2567   1.268       .  A
O2558      C2566   1.280       .  A
O2560      C2569   1.280       .  A
O2561      C2568   1.277       .  A
O2562      C2569   1.271       .  A
O2563      C2570   1.272       .  A
O2564      C2570   1.268       .  A
C2565      C2705   1.487       .  S
C2566      C2649   1.488       .  S
C2567      C2971   1.482       .  S
C2568      C2719   1.467       .  S
C2569      C2660   1.496       .  S
C2570      C2635   1.468       .  S
Zn2571     O2575   1.938       .  S
Zn2571     O2576   2.057       .  S
Zn2571     O2580   1.983       .  S
Zn2571     O2587   2.037       .  S
Zn2572     O2575   1.921       .  S
Zn2572     O2577   1.971       .  S
Zn2572     O2579   2.009       .  S
Zn2572     O2583   2.006       .  S
Zn2573     O2575   1.957       .  S
Zn2573     O2578   2.064       .  S
Zn2573     O2584   2.055       .  S
Zn2574     O2575   1.936       .  S
Zn2574     O2582   2.006       .  S
Zn2574     O2585   2.015       .  S
Zn2574     O2586   1.987       .  S
O2576      C2588   1.278       .  A
O2578      C2590   1.280       .  A
O2579      C2588   1.270       .  A
O2580      C2590   1.271       .  A
O2581      C2589   1.279       .  A
O2582      C2591   1.272       .  A
O2583      C2592   1.273       .  A
O2584      C2591   1.279       .  A
O2585      C2592   1.272       .  A
O2586      C2593   1.272       .  A
O2587      C2593   1.279       .  A
C2588      C2618   1.497       .  S
C2589      C2758   1.471       .  S
C2590      C2691   1.497       .  S
C2591      C3041   1.481       .  S
C2592      C2674   1.472       .  S
C2593      C2775   1.471       .  S
Zn2594     O2598   1.942       .  S
Zn2594     O2599   1.991       .  S
Zn2594     O2603   2.056       .  S
Zn2594     O2610   2.059       .  S
Zn2595     O2598   1.977       .  S
Zn2595     O2600   2.060       .  S
Zn2595     O2602   2.062       .  S
Zn2596     O2598   1.920       .  S
Zn2596     O2601   1.972       .  S
Zn2596     O2604   1.966       .  S
Zn2596     O2607   2.002       .  S
Zn2597     O2598   1.924       .  S
Zn2597     O2605   2.034       .  S
Zn2597     O2609   2.006       .  S
O2599      C2611   1.271       .  A
O2600      C2612   1.278       .  A
O2601      C2613   1.271       .  A
O2602      C2611   1.279       .  A
O2603      C2613   1.282       .  A
O2604      C2612   1.268       .  A
O2605      C2614   1.274       .  A
O2606      C2615   1.279   1_545  A
O2607      C2614   1.269       .  A
O2608      C2615   1.270   1_545  A
O2609      C2616   1.273       .  A
O2610      C2616   1.279       .  A
C2611      C2730   1.495       .  S
C2612      C2828   1.476       .  S
C2613      C2646   1.486       .  S
C2615      C2632   1.472       .  S
C2616      C2621   1.499       .  S
C2617      C2618   1.407       .  A
C2617      H2624   1.084       .  S
C2618      C2619   1.419       .  A
C2619      N2626   1.433       .  S
C2620      C2621   1.406       .  A
C2620      H2625   1.084       .  S
C2621      C2622   1.417       .  A
C2622      N2623   1.438       .  S
N2623      H2627   1.046       .  S
N2623      H2628   1.046       .  S
N2626      H2629   1.046       .  S
N2626      H2630   1.044       .  S
C2631      C2632   1.403       .  A
C2631      C2636   1.395       .  A
C2631      H2638   1.084       .  S
C2632      C2633   1.412       .  A
C2633      C2634   1.410       .  A
C2633      N2640   1.437       .  S
C2634      C2635   1.403       .  A
C2634      H2639   1.084       .  S
C2635      C2636   1.409       .  A
C2636      N2637   1.440       .  S
N2637      H2641   1.046       .  S
N2637      H2642   1.046       .  S
N2640      H2643   1.045       .  S
N2640      H2644   1.046       .  S
C2645      C2646   1.411       .  A
C2645      C2650   1.408       .  A
C2645      H2652   1.084       .  S
C2646      C2647   1.408       .  A
C2647      C2648   1.401       .  A
C2647      N2654   1.433       .  S
C2648      C2649   1.410       .  A
C2648      H2653   1.084       .  S
C2649      C2650   1.411       .  A
N2651      H2655   1.046       .  S
N2651      H2656   1.046       .  S
N2654      H2657   1.046       .  S
N2654      H2658   1.045       .  S
C2659      C2660   1.402       .  A
C2659      H2666   1.084       .  S
C2660      C2661   1.418       .  A
C2661      N2668   1.432       .  S
C2662      C2663   1.404       .  A
C2662      H2667   1.084       .  S
C2663      C2664   1.421       .  A
C2664      N2665   1.434       .  S
N2665      H2670   1.046       .  S
N2668      H2671   1.045   1_655  S
C2673      C2674   1.405       .  A
C2673      C2678   1.406       .  A
C2673      H2680   1.084       .  S
C2674      C2675   1.409       .  A
C2675      C2676   1.403       .  A
C2675      N2682   1.438       .  S
C2676      C2677   1.403       .  A
C2676      H2681   1.084       .  S
C2677      C2678   1.406       .  A
C2678      N2679   1.437       .  S
N2679      H2683   1.046       .  S
N2679      H2684   1.045       .  S
N2682      H2685   1.046       .  S
N2682      H2686   1.045       .  S
C2687      C2688   1.405       .  A
C2687      C2692   1.402       .  A
C2687      H2694   1.084       .  S
C2688      C2689   1.402       .  A
C2689      C2690   1.404       .  A
C2689      N2696   1.432       .  S
C2690      C2691   1.414       .  A
C2690      H2695   1.083       .  S
C2691      C2692   1.419       .  A
C2692      N2693   1.432       .  S
N2693      H2697   1.044       .  S
N2693      H2698   1.046       .  S
N2696      H2699   1.047       .  S
C2701      C2702   1.403       .  A
C2701      C2706   1.404       .  A
C2701      H2708   1.084       .  S
C2702      C2703   1.419       .  A
C2703      C2704   1.404       .  A
C2703      N2710   1.433       .  S
C2704      C2705   1.401       .  A
C2704      H2709   1.084       .  S
C2705      C2706   1.416       .  A
C2706      N2707   1.433       .  S
N2707      H2711   1.046       .  S
N2707      H2712   1.046       .  S
N2710      H2713   1.046       .  S
N2710      H2714   1.046       .  S
C2715      C2716   1.398       .  A
C2715      C2720   1.398       .  A
C2715      H2722   1.084       .  S
C2716      C2717   1.416       .  A
C2717      C2718   1.402       .  A
C2718      C2719   1.401       .  A
C2719      C2720   1.418       .  A
C2720      N2721   1.440       .  S
N2721      H2725   1.045       .  S
N2721      H2726   1.045       .  S
N2724      H2727   1.041       .  S
C2729      C2730   1.411       .  A
C2729      C2734   1.402       .  A
C2729      H2736   1.084       .  S
C2730      C2731   1.414       .  A
C2731      C2732   1.401       .  A
C2732      C2733   1.414       .  A
C2732      H2737   1.084       .  S
C2733      C2734   1.416       .  A
C2734      N2735   1.432       .  S
N2735      H2739   1.044       .  S
N2735      H2740   1.046       .  S
N2738      H2741   1.046       .  S
N2738      H2742   1.045       .  S
C2743      C2744   1.400       .  A
C2743      C2748   1.402       .  A
C2743      H2750   1.084       .  S
C2744      C2745   1.416       .  A
C2745      C2746   1.407       .  A
C2745      N2752   1.438       .  S
C2746      C2747   1.398       .  A
C2746      H2751   1.084       .  S
C2747      C2748   1.410       .  A
C2748      N2749   1.437       .  S
N2749      H2753   1.046       .  S
N2749      H2754   1.046       .  S
N2752      H2756   1.046       .  S
C2757      C2758   1.406       .  A
C2757      C2762   1.402       .  A
C2757      H2764   1.085       .  S
C2758      C2759   1.405       .  A
C2759      C2760   1.407       .  A
C2759      N2766   1.437       .  S
C2760      C2761   1.409       .  A
C2760      H2765   1.084       .  S
C2761      C2762   1.410       .  A
C2762      N2763   1.439       .  S
N2763      H2767   1.046       .  S
N2766      H2769   1.045       .  S
N2766      H2770   1.046       .  S
C2771      C2772   1.405       .  A
C2771      C2776   1.400       .  A
C2771      H2778   1.083       .  S
C2772      C2773   1.410       .  A
C2773      C2774   1.409       .  A
C2773      N2780   1.437       .  S
C2774      C2775   1.406       .  A
C2774      H2779   1.084       .  S
C2775      C2776   1.407       .  A
C2776      N2777   1.439       .  S
N2777      H2781   1.046       .  S
N2777      H2782   1.045       .  S
N2780      H2783   1.045       .  S
N2780      H2784   1.046       .  S
C2785      C2786   1.404       .  A
C2785      C2790   1.404       .  A
C2785      H2792   1.084       .  S
C2786      C2787   1.416       .  A
C2787      C2788   1.407       .  A
C2787      N2794   1.432       .  S
C2788      C2789   1.404       .  A
C2788      H2793   1.084       .  S
C2789      C2790   1.409       .  A
C2790      N2791   1.438       .  S
N2791      H2795   1.046       .  S
N2791      H2796   1.046       .  S
N2794      H2797   1.045       .  S
N2794      H2798   1.045       .  S
C2799      C2800   1.403       .  A
C2799      C2804   1.404       .  A
C2799      H2806   1.084       .  S
C2800      C2801   1.406       .  A
C2801      C2802   1.402       .  A
C2801      N2808   1.438       .  S
C2802      C2803   1.410       .  A
C2802      H2807   1.083       .  S
C2803      C2804   1.420       .  A
C2804      N2805   1.432       .  S
N2805      H2809   1.045       .  S
N2808      H2811   1.046       .  S
N2808      H2812   1.045       .  S
C2813      C2814   1.408       .  A
C2813      C2818   1.403   1_554  A
C2813      H2820   1.084       .  S
C2814      C2815   1.414       .  A
C2815      C2816   1.409   1_554  A
C2815      N2822   1.432       .  S
C2816      C2817   1.413       .  A
C2816      H2821   1.084       .  S
C2817      C2818   1.411       .  A
C2818      N2819   1.433       .  S
N2819      H2823   1.045       .  S
N2819      H2824   1.046       .  S
N2822      H2825   1.045       .  S
N2822      H2826   1.045       .  S
C2827      C2828   1.403       .  A
C2827      C2832   1.399       .  A
C2827      H2834   1.084       .  S
C2828      C2829   1.407       .  A
C2829      C2830   1.409       .  A
C2829      N2836   1.432       .  S
C2830      C2831   1.408       .  A
C2830      H2835   1.084       .  S
C2831      C2832   1.410       .  A
C2832      N2833   1.439       .  S
N2833      H2837   1.046       .  S
N2833      H2838   1.045       .  S
N2836      H2839   1.045       .  S
N2836      H2840   1.046       .  S
C2841      C2846   1.413       .  A
C2841      H2848   1.079       .  S
C2842      C2843   1.411       .  A
C2843      C2844   1.405       .  A
C2843      N2850   1.432       .  S
C2844      H2849   1.082       .  S
C2845      C2846   1.406       .  A
C2846      N2847   1.437       .  S
N2847      H2851   1.044       .  S
N2847      H2852   1.047       .  S
N2850      H2853   1.046       .  S
N2850      H2854   1.045       .  S
C2855      C2856   1.408       .  A
C2855      C2860   1.413       .  A
C2855      H2862   1.083       .  S
C2856      C2857   1.417       .  A
C2857      C2858   1.399       .  A
C2857      N2864   1.434       .  S
C2858      C2859   1.405       .  A
C2858      H2863   1.084       .  S
C2859      C2860   1.415       .  A
C2860      N2861   1.432       .  S
N2861      H2865   1.045       .  S
N2861      H2866   1.046       .  S
N2864      H2867   1.046       .  S
N2864      H2868   1.046       .  S
C2869      C2870   1.412       .  A
C2869      C2874   1.401       .  A
C2869      H2876   1.084       .  S
C2870      C2871   1.416       .  A
C2871      C2872   1.400       .  A
C2871      N2878   1.432       .  S
C2872      C2873   1.411       .  A
C2872      H2877   1.083       .  S
C2873      C2874   1.416       .  A
C2874      N2875   1.432       .  S
N2875      H2879   1.045       .  S
N2875      H2880   1.046       .  S
N2878      H2881   1.045       .  S
N2878      H2882   1.045       .  S
C2883      C2884   1.400       .  A
C2883      C2888   1.401       .  A
C2883      H2890   1.084       .  S
C2884      C2885   1.418       .  A
C2885      C2886   1.412       .  A
C2885      N2892   1.438       .  S
C2886      C2887   1.402       .  A
C2886      H2891   1.083       .  S
C2887      C2888   1.423       .  A
C2888      N2889   1.434       .  S
N2889      H2893   1.044       .  S
N2889      H2894   1.045       .  S
N2892      H2895   1.046       .  S
N2892      H2896   1.045       .  S
C2897      C2898   1.406       .  A
C2897      C2902   1.407       .  A
C2897      H2904   1.084       .  S
C2898      C2899   1.408       .  A
C2899      C2900   1.403       .  A
C2899      N2906   1.438       .  S
C2900      C2901   1.402       .  A
C2900      H2905   1.082       .  S
C2901      C2902   1.409       .  A
C2902      N2903   1.438       .  S
N2903      H2907   1.046       .  S
N2903      H2908   1.045       .  S
N2906      H2909   1.046       .  S
N2906      H2910   1.046       .  S
C2911      C2912   1.408       .  A
C2911      H2918   1.083       .  S
C2912      C2913   1.413       .  A
C2913      N2920   1.432       .  S
C2914      C2915   1.406       .  A
C2914      H2919   1.084       .  S
C2915      C2916   1.412       .  A
C2916      N2917   1.438       .  S
N2917      H2921   1.046       .  S
N2917      H2922   1.046       .  S
N2920      H2923   1.045       .  S
N2920      H2924   1.046   1_565  S
C2925      C2926   1.406       .  A
C2925      C2930   1.397       .  A
C2925      H2932   1.085       .  S
C2926      C2927   1.412       .  A
C2927      C2928   1.404       .  A
C2928      C2929   1.410       .  A
C2928      H2933   1.084       .  S
C2929      C2930   1.413       .  A
C2930      N2931   1.433       .  S
N2931      H2935   1.046       .  S
N2931      H2936   1.044       .  S
N2934      H2937   1.043       .  S
N2934      H2938   1.046       .  S
C2939      C2940   1.409       .  A
C2939      C2944   1.401       .  A
C2939      H2946   1.084       .  S
C2940      C2941   1.413       .  A
C2941      C2942   1.414       .  A
C2942      C2943   1.407       .  A
C2942      H2947   1.084       .  S
C2943      C2944   1.412       .  A
C2944      N2945   1.434       .  S
N2945      H2949   1.044       .  S
N2945      H2950   1.046       .  S
N2948      H2951   1.046       .  S
N2948      H2952   1.046   1_455  S
C2953      C2954   1.400       .  A
C2953      C2958   1.404       .  A
C2953      H2960   1.084       .  S
C2954      C2955   1.417       .  A
C2955      C2956   1.411       .  A
C2955      N2962   1.438       .  S
C2956      C2957   1.403       .  A
C2956      H2961   1.083       .  S
C2957      C2958   1.414       .  A
C2958      N2959   1.433       .  S
N2959      H2963   1.046       .  S
N2959      H2964   1.045       .  S
N2962      H2965   1.046       .  S
N2962      H2966   1.046       .  S
C2967      C2968   1.399       .  A
C2967      C2972   1.403       .  A
C2967      H2974   1.084       .  S
C2968      C2969   1.416       .  A
C2969      C2970   1.408       .  A
C2969      N2976   1.438       .  S
C2970      C2971   1.401       .  A
C2970      H2975   1.084       .  S
C2971      C2972   1.418       .  A
C2972      N2973   1.439       .  S
N2973      H2977   1.046       .  S
N2973      H2978   1.046       .  S
N2976      H2979   1.045       .  S
N2976      H2980   1.046       .  S
C2981      C2982   1.401       .  A
C2981      C2986   1.402       .  A
C2981      H2988   1.084       .  S
C2982      C2983   1.418       .  A
C2983      C2984   1.404       .  A
C2983      N2990   1.439       .  S
C2984      C2985   1.399       .  A
C2984      H2989   1.084       .  S
C2985      C2986   1.418       .  A
C2986      N2987   1.433       .  S
N2987      H2991   1.044       .  S
N2987      H2992   1.045       .  S
N2990      H2993   1.046       .  S
N2990      H2994   1.046       .  S
C2995      C2996   1.401       .  A
C2995      C3000   1.405       .  A
C2995      H3002   1.084       .  S
C2996      C2997   1.421       .  A
C2997      C2998   1.402       .  A
C2997      N3004   1.433       .  S
C2998      C2999   1.398       .  A
C2998      H3003   1.084       .  S
C2999      C3000   1.414       .  A
C3000      N3001   1.439       .  S
N3001      H3005   1.046       .  S
N3004      H3008   1.044       .  S
C3009      C3010   1.408       .  A
C3009      C3014   1.413       .  A
C3009      H3016   1.084       .  S
C3010      C3011   1.402       .  A
C3011      C3012   1.399       .  A
C3012      C3013   1.409       .  A
C3012      H3017   1.084       .  S
C3013      C3014   1.409       .  A
C3014      N3015   1.431       .  S
N3015      H3019   1.046       .  S
N3015      H3020   1.045       .  S
N3018      H3021   1.046       .  S
N3018      H3022   1.045       .  S
C3023      C3024   1.400       .  A
C3023      C3028   1.402       .  A
C3023      H3030   1.084       .  S
C3024      C3025   1.417       .  A
C3025      C3026   1.405       .  A
C3025      N3032   1.433       .  S
C3026      C3027   1.407       .  A
C3026      H3031   1.083       .  S
C3027      C3028   1.419       .  A
C3028      N3029   1.433   1_565  S
N3029      H3033   1.046       .  S
N3029      H3034   1.046   1_545  S
N3032      H3035   1.045       .  S
N3032      H3036   1.045       .  S
C3037      C3038   1.404       .  A
C3037      C3042   1.408       .  A
C3037      H3044   1.084       .  S
C3038      C3039   1.413       .  A
C3039      C3040   1.403       .  A
C3039      N3046   1.433       .  S
C3040      C3041   1.400       .  A
C3040      H3045   1.084       .  S
C3041      C3042   1.413       .  A
C3042      N3043   1.432       .  S
N3043      H3047   1.046       .  S
N3043      H3048   1.045       .  S
N3046      H3049   1.045       .  S
N3046      H3050   1.046       .  S
C3051      C3052   1.396       .  A
C3051      C3056   1.403       .  A
C3051      H3058   1.084       .  S
C3052      C3053   1.422       .  A
C3053      C3054   1.413       .  A
C3053      N3060   1.437       .  S
C3054      C3055   1.405       .  A
C3054      H3059   1.084       .  S
C3055      C3056   1.423       .  A
C3056      N3057   1.433       .  S
N3057      H3061   1.046       .  S
N3057      H3062   1.046       .  S
N3060      H3063   1.044       .  S
N3060      H3064   1.044       .  S
C3065      C3066   1.404       .  A
C3065      C3070   1.410       .  A
C3066      C3067   1.417       .  A
C3067      C3068   1.400       .  A
C3067      N3074   1.432       .  S
C3068      C3069   1.397       .  A
C3068      H3073   1.084       .  S
C3069      C3070   1.412       .  A
N3071      H3075   1.046       .  S
N3071      H3076   1.045       .  S
N3074      H3077   1.045       .  S
N3074      H3078   1.046       .  S
C3079      C3080   1.406       .  A
C3079      C3084   1.414       .  A
C3079      H3086   1.084       .  S
C3080      C3081   1.402       .  A
C3081      C3082   1.399       .  A
C3081      N3088   1.433       .  S
C3082      C3083   1.410       .  A
C3082      H3087   1.084       .  S
C3083      C3084   1.413       .  A
C3084      N3085   1.436       .  S
N3085      H3089   1.046       .  S
N3085      H3090   1.046       .  S
N3088      H3091   1.045       .  S
N3088      H3092   1.046       .  S
C3093      C3094   1.403       .  A
C3093      C3098   1.400       .  A
C3093      H3100   1.083       .  S
C3094      C3095   1.412       .  A
C3095      C3096   1.401       .  A
C3095      N3102   1.432       .  S
C3096      C3097   1.405       .  A
C3096      H3101   1.084       .  S
C3097      C3098   1.405       .  A
C3098      N3099   1.433       .  S
N3099      H3103   1.045       .  S
N3099      H3104   1.045       .  S
N3102      H3105   1.044       .  S
N3102      H3106   1.045       .  S
C3107      C3108   1.406       .  A
C3107      C3112   1.407       .  A
C3107      H3114   1.084       .  S
C3108      C3109   1.409       .  A
C3109      C3110   1.413       .  A
C3109      N3116   1.437       .  S
C3110      C3111   1.413       .  A
C3110      H3115   1.084       .  S
C3111      C3112   1.413       .  A
C3112      N3113   1.438       .  S
N3113      H3117   1.045       .  S
N3113      H3118   1.046       .  S
N3116      H3119   1.045       .  S
N3116      H3120   1.046       .  S
