geometry optimzed in LAMMPS
_audit_creation_date              2020-12-01 
_audit_creation_method            'lammps2cif' 
_symmetry_space_group_name_H-M    'P1' 
_symmetry_Int_Tables_number       1 
_symmetry_cell_setting            triclinic 
loop_ 
_symmetry_equiv_pos_as_xyz 
  x,y,z 
_cell_length_a                    59.93868901 
_cell_length_b                    59.73914350428135 
_cell_length_c                    43.48219447612014 
_cell_angle_alpha                 90.05143226969646 
_cell_angle_beta                  89.78383099662008 
_cell_angle_gamma                 120.1585020550319 
loop_ 
_atom_site_label 
_atom_site_type_symbol 
_atom_site_fract_x 
_atom_site_fract_y 
_atom_site_fract_z 
_atom_site_charge 
O1          O  0.10180578  0.20708799  0.33377162    -0.83000
C2          C  0.13533629  0.23898820  0.21687288     0.96300
O3          O  0.11592417  0.23396503  0.23324579    -0.72100
O4          O  0.08205748  0.21097670  0.27754600    -0.75700
Al5        Al  0.11637780  0.23994959  0.27596788     1.49000
C6          C  0.07326839  0.18696626  0.27517289     0.91600
O7          O  0.13069806  0.17534546  0.28421534    -0.81900
O8          O  0.17735984  0.22444018  0.30161781    -0.75500
Al9        Al  0.11749301  0.19409508  0.30629446     1.90100
O10         O  0.15388408  0.20173693  0.24743165    -0.74600
O11         O  0.17826003  0.26738704  0.28491352    -0.74400
O12         O  0.15671792  0.24449474  0.22874914    -0.80100
O13         O  0.14637826  0.27333573  0.27243174    -0.78300
O14         O  0.13270374  0.22251568  0.28317273    -1.14400
O15         O  0.11557115  0.24704243  0.31856424    -0.73600
C16         C  0.10645259  0.22985175  0.33928026     0.97100
C17         C  0.14343623  0.17958626  0.25962069     0.93500
Al18       Al  0.16395194  0.23365634  0.26710656     1.55600
O19         O  0.08742163  0.17741610  0.28082179    -0.78200
C20         C  0.16941909  0.28236214  0.28089650     0.97700
C21         C  0.16860635  0.21589991  0.32812749     0.92500
O22         O  0.14513913  0.20709397  0.33449328    -0.83600
O23         O  0.24720503  0.46905685  0.24498224    -0.83000
C24         C  0.23628794  0.43535632  0.36691049     0.96300
O25         O  0.21759910  0.42732337  0.34835132    -0.72100
O26         O  0.21253556  0.46290778  0.32061548    -0.75700
Al27       Al  0.21654661  0.43560533  0.30575412     1.49000
C28         C  0.22138134  0.48530241  0.31004011     0.91600
O29         O  0.28678210  0.50396441  0.31534774    -0.81900
O30         O  0.28455208  0.44163571  0.27843515    -0.75500
Al31       Al  0.26568982  0.48456743  0.28128894     1.90100
O32         O  0.29965941  0.47646855  0.32641848    -0.74600
O33         O  0.24659729  0.40601245  0.31410692    -0.74400
O34         O  0.25908594  0.44373483  0.35766509    -0.80100
O35         O  0.21396952  0.40489862  0.29111289    -0.78300
O36         O  0.25082452  0.45437235  0.30162129    -1.14400
O37         O  0.20944693  0.44053656  0.26435545    -0.73600
C38         C  0.22373284  0.45238134  0.24169000     0.97100
C39         C  0.30279070  0.49900775  0.32793017     0.93500
Al40       Al  0.27067514  0.44285449  0.31772262     1.55600
O41         O  0.24131671  0.49529220  0.29328082    -0.78200
C42         C  0.22502921  0.39337296  0.30104034     0.97700
C43         C  0.29639323  0.46132820  0.26129813     0.92500
O44         O  0.29296177  0.48048425  0.26400992    -0.83600
O45         O  0.54441324  0.41649669  0.07854813    -0.83000
C46         C  0.52127631  0.43017323  0.19765976     0.96300
O47         O  0.53250187  0.44889627  0.17891657    -0.72100
O48         O  0.57276221  0.45183136  0.15229728    -0.75700
Al49       Al  0.54239598  0.44935129  0.13662605     1.49000
C50         C  0.58506586  0.44113385  0.14349246     0.91600
O51         O  0.53475740  0.37691864  0.14949103    -0.81900
O52         O  0.47876743  0.38399399  0.10915393    -0.75500
Al53       Al  0.53907747  0.39815340  0.11482752     1.90100
O54         O  0.49442024  0.36574806  0.15734736    -0.74600
O55         O  0.48317980  0.42240106  0.14532795    -0.74400
O56         O  0.50567699  0.40743622  0.18880257    -0.80100
O57         O  0.51541067  0.45364879  0.12100363    -0.78300
O58         O  0.52514294  0.41489697  0.13343345    -1.14400
O59         O  0.55521389  0.45530995  0.09534432    -0.73600
C60         C  0.55287700  0.44012458  0.07373198     0.97100
C61         C  0.51278034  0.36132517  0.16038692     0.93500
Al62       Al  0.49320824  0.39656203  0.14884919     1.55600
O63         O  0.57422753  0.42073092  0.12764766    -0.78200
C64         C  0.49293660  0.44376760  0.13148919     0.97700
C65         C  0.48592473  0.37137357  0.09240409     0.92500
O66         O  0.50729942  0.37238489  0.09671814    -0.83600
O67         O  0.41373829  0.55184864  0.17294159    -0.83000
C68         C  0.42132720  0.52337807  0.05215224     0.96300
O69         O  0.44030812  0.53543279  0.07026322    -0.72100
O70         O  0.44441663  0.57771373  0.09344883    -0.75700
Al71       Al  0.44283951  0.54824348  0.11176237     1.49000
C72         C  0.43603212  0.59152514  0.10449622     0.91600
O73         O  0.37313995  0.54480388  0.10438694    -0.81900
O74         O  0.37696678  0.48655614  0.14415926    -0.75500
Al75       Al  0.39457907  0.54773583  0.13788369     1.90100
O76         O  0.35897556  0.50350421  0.09666330    -0.74600
O77         O  0.41375164  0.48873580  0.10684487    -0.74400
O78         O  0.39865260  0.51088857  0.06270573    -0.80100
O79         O  0.44645158  0.52122915  0.12901663    -0.78300
O80         O  0.40889675  0.53212425  0.11777940    -1.14400
O81         O  0.45164234  0.56407526  0.15225978    -0.73600
C82         C  0.43771209  0.56171249  0.17545327     0.97100
C83         C  0.35597758  0.52295428  0.09487779     0.93500
Al84       Al  0.38880608  0.50006415  0.10371189     1.55600
O85         O  0.41834303  0.58248424  0.12445473    -0.78200
C86         C  0.43539768  0.49815805  0.11983018     0.97700
C87         C  0.36565906  0.49481782  0.16148989     0.92500
O88         O  0.36799006  0.51682910  0.15711345    -0.83600
O89         O  0.20660309  0.11361623  0.41183874    -0.83000
C90         C  0.23553557  0.14731337  0.02929203     0.96300
O91         O  0.23430205  0.13002509  0.01156588    -0.72100
O92         O  0.21321161  0.09634364  0.46656915    -0.75700
Al93       Al  0.23907581  0.13173204  0.46924445     1.49000
C94         C  0.18896276  0.08411683  0.46943738     0.91600
O95         O  0.16853627  0.13643492  0.46001473    -0.81900
O96         O  0.21571401  0.18675775  0.44522646    -0.75500
Al97       Al  0.19057371  0.12659320  0.43935442     1.90100
O98         O  0.19151110  0.16073891  0.49827704    -0.74600
O99         O  0.25998437  0.19312637  0.46553472    -0.74400
O100        O  0.23809485  0.16834318  0.01896081    -0.80100
O101        O  0.27003134  0.16337269  0.47436185    -0.78300
O102        O  0.21818492  0.14437193  0.46323855    -1.14400
O103        O  0.24714898  0.13350474  0.42650170    -0.73600
C104        C  0.23010152  0.12118228  0.40645593     0.97100
C105        C  0.17055243  0.14945839  0.48371765     0.93500
Al106      Al  0.22512236  0.17429650  0.48066027     1.55600
O107        O  0.17655247  0.09577014  0.46458753    -0.78200
C108        C  0.27670675  0.18646513  0.46880687     0.97700
C109        C  0.20831976  0.17781029  0.41844911     0.92500
O110        O  0.20142280  0.15462150  0.41201165    -0.83600
O111        O  0.46026441  0.25380440  0.01069837    -0.83000
C112        C  0.42698497  0.24410718  0.38792152     0.96300
O113        O  0.41677883  0.22559249  0.40709225    -0.72100
O114        O  0.45071160  0.21737185  0.43475778    -0.75700
Al115      Al  0.42485015  0.22394982  0.44971656     1.49000
C116        C  0.47324321  0.22565349  0.44452144     0.91600
O117        O  0.49614999  0.29245516  0.44009511    -0.81900
O118        O  0.43535492  0.29361825  0.47470488    -0.75500
Al119      Al  0.47561275  0.27132503  0.47360062     1.90100
O120        O  0.47068201  0.30743422  0.42843906    -0.74600
O121        O  0.39995107  0.25760697  0.43848531    -0.74400
O122        O  0.43781106  0.26739663  0.39660758    -0.80100
O123        O  0.39563281  0.22482546  0.46498529    -0.78300
O124        O  0.44581675  0.25810374  0.45315493    -1.14400
O125        O  0.42931239  0.21599035  0.49096540    -0.73600
C126        C  0.44368379  0.23037938  0.01441230     0.97100
C127        C  0.49265828  0.30954535  0.42781989     0.93500
Al128      Al  0.43669158  0.27955263  0.43600847     1.55600
O129        O  0.48431435  0.24579850  0.46083647    -0.78200
C130        C  0.38628022  0.23798809  0.45476346     0.97700
C131        C  0.45415727  0.30375159  0.49310613     0.92500
O132        O  0.47253524  0.29907839  0.49140238    -0.83600
O133        O  0.51672139  0.13652786  0.33694918    -0.83000
C134        C  0.52101081  0.09493797  0.45024335     0.96300
O135        O  0.50102127  0.09407553  0.43934808    -0.72100
O136        O  0.50113621  0.13601813  0.42059824    -0.75700
Al137      Al  0.49373039  0.10449611  0.40091564     1.49000
C138        C  0.51325911  0.15874891  0.41012868     0.91600
O139        O  0.57168657  0.15978731  0.39440711    -0.81900
O140        O  0.54367847  0.09416856  0.34713204    -0.75500
Al141      Al  0.54292916  0.14631387  0.36672782     1.90100
O142        O  0.57566696  0.12531964  0.39258420    -0.74600
O143        O  0.51118999  0.06372363  0.38871387    -0.74400
O144        O  0.53947103  0.09774265  0.43342438    -0.80100
O145        O  0.47914088  0.07071578  0.38347180    -0.78300
O146        O  0.52569503  0.11592062  0.38619386    -1.14400
O147        O  0.48183007  0.11369319  0.36528591    -0.73600
C148        C  0.49257852  0.12532188  0.34063944     0.97100
C149        C  0.58535655  0.14928459  0.39702848     0.93500
Al150      Al  0.54106166  0.09687525  0.39029762     1.55600
O151        O  0.52982486  0.16425267  0.38944076    -0.78200
C152        C  0.48796016  0.05561279  0.38262583     0.97700
C153        C  0.55444750  0.11339531  0.32933821     0.92500
O154        O  0.55958062  0.13555885  0.33823682    -0.83600
O155        O  0.38052449  0.86853608  0.41879839    -0.83000
C156        C  0.42964850  0.90104610  0.30445721     0.96300
O157        O  0.41177049  0.90513583  0.31331110    -0.72100
O158        O  0.37051219  0.86359688  0.33146651    -0.75700
Al159      Al  0.39156265  0.89553749  0.35101828     1.49000
C160        C  0.35744965  0.84196416  0.34433899     0.91600
O161        O  0.41140550  0.84018405  0.36755009    -0.81900
O162        O  0.44917543  0.90942035  0.40911528    -0.75500
Al163      Al  0.39644607  0.85598863  0.39223105     1.90100
O164        O  0.45045726  0.87386158  0.36979417    -0.74600
O165        O  0.44865434  0.93628999  0.36103945    -0.74400
O166        O  0.44326738  0.89754296  0.32377373    -0.80100
O167        O  0.40979242  0.92958627  0.36782829    -0.78300
O168        O  0.41080040  0.88481480  0.36976397    -1.14400
O169        O  0.36749840  0.88699509  0.38508216    -0.73600
C170        C  0.36675340  0.87820334  0.41187734     0.97100
C171        C  0.43555994  0.84997401  0.36499381     0.93500
Al172      Al  0.44502179  0.90286623  0.36620812     1.55600
O173        O  0.36522060  0.83724712  0.36902371    -0.78200
C174        C  0.43368301  0.94494907  0.36593172     0.97700
C175        C  0.44113167  0.89134535  0.42865030     0.92500
O176        O  0.42366637  0.86861959  0.42174705    -0.83600
O177        O  0.19760492  0.05892798  0.16325064    -0.83000
C178        C  0.23720034  0.10252689  0.27962467     0.96300
O179        O  0.23606497  0.08236529  0.26865573    -0.72100
O180        O  0.19104954  0.04441719  0.25120465    -0.75700
Al181      Al  0.22346175  0.06389504  0.23084338     1.49000
C182        C  0.16956443  0.03352329  0.23781854     0.91600
O183        O  0.17319349  0.09085795  0.21934483    -0.81900
O184        O  0.24099876  0.12653771  0.17610893    -0.75500
Al185      Al  0.18679496  0.07515316  0.19247871     1.90100
O186        O  0.20910046  0.12853595  0.22070746    -0.74600
O187        O  0.26793765  0.12021835  0.21864164    -0.74400
O188        O  0.23447700  0.11815756  0.26270576    -0.80100
O189        O  0.25707205  0.07958536  0.21315544    -0.78300
O190        O  0.21560582  0.08646558  0.21444913    -1.14400
O191        O  0.21215497  0.04112757  0.19588858    -0.73600
C192        C  0.20467912  0.04274430  0.16919343     0.97100
C193        C  0.18476139  0.11516186  0.22301930     0.93500
Al194      Al  0.23639734  0.12050905  0.21929398     1.55600
O195        O  0.16652245  0.04310258  0.21354361    -0.78200
C196        C  0.27388978  0.10322414  0.21288526     0.97700
C197        C  0.22271540  0.11998215  0.15748887     0.92500
O198        O  0.19994411  0.10377935  0.16535284    -0.83600
O199        O  0.46719611  0.18571005  0.24918291    -0.83000
C200        C  0.42508125  0.19450802  0.13976994     0.96300
O201        O  0.42255619  0.17313989  0.14904099    -0.72100
O202        O  0.46425401  0.17291281  0.16631090    -0.75700
Al203      Al  0.43310728  0.16408064  0.18697350     1.49000
C204        C  0.48756899  0.18688911  0.17338504     0.91600
O205        O  0.48658259  0.24299696  0.19683126    -0.81900
O206        O  0.42067748  0.20933671  0.24447276    -0.75500
Al207      Al  0.47476639  0.21283669  0.22209963     1.90100
O208        O  0.45168581  0.24520344  0.20261647    -0.74600
O209        O  0.39213924  0.17994086  0.19809202    -0.74400
O210        O  0.42795638  0.21211874  0.15821845    -0.80100
O211        O  0.39934636  0.14820847  0.20488810    -0.78300
O212        O  0.44427358  0.19541340  0.20336226    -1.14400
O213        O  0.44254132  0.15088717  0.22174072    -0.73600
C214        C  0.45513682  0.16152642  0.24590105     0.97100
C215        C  0.47533324  0.25599547  0.19630095     0.93500
Al216      Al  0.42473500  0.21016411  0.20105320     1.55600
O217        O  0.49361333  0.20266310  0.19532561    -0.78200
C218        C  0.38381793  0.15638235  0.20271316     0.97700
C219        C  0.43971801  0.22072887  0.26252358     0.92500
O220        O  0.46214933  0.22607925  0.25400062    -0.83600
O221        O  0.14527930  0.95038965  0.08226992    -0.83000
C222        C  0.13937155  0.90789399  0.46499163     0.96300
O223        O  0.16043675  0.92390931  0.47768849    -0.72100
O224        O  0.15927910  0.96465495  0.49682183    -0.75700
Al225      Al  0.16555137  0.94235243  0.01565089     1.49000
C226        C  0.14846874  0.97809082  0.00791382     0.91600
O227        O  0.09022261  0.92420510  0.02564862    -0.81900
O228        O  0.11580881  0.88175210  0.06689560    -0.75500
Al229      Al  0.11885428  0.93666596  0.05293517     1.90100
O230        O  0.08315068  0.88445213  0.02438309    -0.74600
O231        O  0.14669372  0.88447892  0.02214926    -0.74400
O232        O  0.11934861  0.89424407  0.48092283    -0.80100
O233        O  0.17901467  0.92242016  0.03370463    -0.78300
O234        O  0.13403014  0.92278414  0.03090772    -1.14400
O235        O  0.17873621  0.96492971  0.05122677    -0.73600
C236        C  0.16900150  0.96493448  0.07717478     0.97100
C237        C  0.07547397  0.90043060  0.02041984     0.93500
Al238      Al  0.11718511  0.88882223  0.02423657     1.55600
O239        O  0.13413766  0.96953902  0.03141769    -0.78200
C240        C  0.17001005  0.89852786  0.02961658     0.97700
C241        C  0.10594739  0.88957739  0.08680524     0.92500
O242        O  0.10113040  0.90744594  0.08047160    -0.83600
O243        O  0.27547513  0.81749324  0.49915036    -0.83000
C244        C  0.23712301  0.81257742  0.11907315     0.96300
O245        O  0.25506794  0.83326578  0.10752495    -0.72100
O246        O  0.29525346  0.83144878  0.08591035    -0.75700
Al247      Al  0.27184527  0.84097756  0.06815563     1.49000
C248        C  0.30633386  0.82127432  0.07172095     0.91600
O249        O  0.24989379  0.76376190  0.05435068    -0.81900
O250        O  0.20855486  0.79182963  0.01704704    -0.75500
Al251      Al  0.26309954  0.79389507  0.02826522     1.90100
O252        O  0.21135827  0.75898303  0.06011938    -0.74600
O253        O  0.21350730  0.82333817  0.06133109    -0.74400
O254        O  0.22161412  0.79388273  0.10252361    -0.80100
O255        O  0.25215926  0.85592289  0.05265564    -0.78300
O256        O  0.25072912  0.80954326  0.05223109    -1.14400
O257        O  0.29296524  0.85438978  0.03203284    -0.73600
C258        C  0.29198470  0.84535695  0.00543996     0.97100
C259        C  0.22637369  0.74997493  0.06186251     0.93500
Al260      Al  0.21677689  0.79346282  0.05967866     1.55600
O261        O  0.29593688  0.80753597  0.04827097    -0.78200
C262        C  0.22808333  0.84667211  0.05428235     0.97700
C263        C  0.21429323  0.77830906  0.49527255     0.92500
O264        O  0.23211192  0.77350527  0.50088077    -0.83600
O265        O  0.21320770  0.75752174  0.24761518    -0.83000
C266        C  0.18328888  0.76343097  0.36800081     0.96300
O267        O  0.19484658  0.78276148  0.35017208    -0.72100
O268        O  0.23636887  0.78935440  0.32253035    -0.75700
Al269      Al  0.20516377  0.78535005  0.30764178     1.49000
C270        C  0.24971056  0.77971712  0.31380898     0.91600
O271        O  0.20097988  0.71296874  0.31581461    -0.81900
O272        O  0.14423943  0.71870711  0.27665069    -0.75500
Al273      Al  0.20590133  0.73654701  0.28280271     1.90100
O274        O  0.16063500  0.70094373  0.32388752    -0.74600
O275        O  0.14535934  0.75471221  0.31370563    -0.74400
O276        O  0.16893412  0.74088662  0.35753147    -0.80100
O277        O  0.17735612  0.78825800  0.29257706    -0.78300
O278        O  0.18986906  0.75108509  0.30230249    -1.14400
O279        O  0.21800745  0.79371389  0.26682539    -0.73600
C280        C  0.21915072  0.78083491  0.24455673     0.97100
C281        C  0.17923565  0.69700143  0.32698720     0.93500
Al282      Al  0.15774410  0.73075417  0.31670239     1.55600
O283        O  0.23978046  0.75905738  0.29850316    -0.78200
C284        C  0.15407921  0.77605909  0.30019939     0.97700
C285        C  0.15319539  0.70889251  0.25801274     0.92500
O286        O  0.17539858  0.71159127  0.26164675    -0.83600
O287        O  0.08643787  0.88441624  0.34016590    -0.83000
C288        C  0.08533085  0.86147005  0.21459569     0.96300
O289        O  0.10516399  0.87234986  0.23143147    -0.72100
O290        O  0.11127496  0.91367477  0.25894228    -0.75700
Al291      Al  0.11027434  0.88354956  0.27354521     1.49000
C292        C  0.10465604  0.92768849  0.27325440     0.91600
O293        O  0.04160009  0.88368009  0.27870666    -0.81900
O294        O  0.04353136  0.82145968  0.30703870    -0.75500
Al295      Al  0.06515886  0.88365090  0.30821969     1.90100
O296        O  0.02626102  0.84322229  0.26454266    -0.74600
O297        O  0.07818929  0.82370205  0.26748600    -0.74400
O298        O  0.06321111  0.84904903  0.22658034    -0.80100
O299        O  0.11388505  0.85551065  0.28648764    -0.78300
O300        O  0.07674867  0.86806487  0.28302881    -1.14400
O301        O  0.12244679  0.89787712  0.31408368    -0.73600
C302        C  0.11032564  0.89279905  0.33936038     0.97100
C303        C  0.02372050  0.86292242  0.26740396     0.93500
Al304      Al  0.05474068  0.83702117  0.26755660     1.55600
O305        O  0.08939232  0.91875443  0.29588375    -0.78200
C306        C  0.10045759  0.83223167  0.27858825     0.97700
C307        C  0.03375291  0.82939631  0.32690179     0.92500
O308        O  0.03859888  0.85254699  0.32677623    -0.83600
O309        O  0.86575815  0.45338579  0.07816450    -0.83000
C310        C  0.89998522  0.48120272  0.19879130     0.96300
O311        O  0.90916444  0.47173686  0.17979200    -0.72100
O312        O  0.87588781  0.43013918  0.15170176    -0.75700
Al313      Al  0.90201892  0.46215462  0.13712516     1.49000
C314        C  0.85236328  0.41638339  0.14558738     0.91600
O315        O  0.83173443  0.46186621  0.14654837    -0.81900
O316        O  0.89356138  0.52173151  0.11054802    -0.75500
Al317      Al  0.85138770  0.45900691  0.11362173     1.90100
O318        O  0.85823980  0.50241640  0.15665668    -0.74600
O319        O  0.92828566  0.52098307  0.14807162    -0.74400
O320        O  0.89004096  0.49428978  0.18957194    -0.80100
O321        O  0.93203944  0.49182574  0.12247076    -0.78300
O322        O  0.88161739  0.47579491  0.13330745    -1.14400
O323        O  0.89806137  0.44989638  0.09587802    -0.73600
C324        C  0.88375936  0.44867042  0.07401814     0.97100
C325        C  0.83601100  0.48284675  0.15837993     0.93500
Al326      Al  0.89166742  0.50702395  0.14967148     1.55600
O327        O  0.84111337  0.42518495  0.12936863    -0.78200
C328        C  0.94195645  0.51412476  0.13349733     0.97700
C329        C  0.87524518  0.51270106  0.09141668     0.92500
O330        O  0.85630434  0.48975883  0.09347228    -0.83600
O331        O  0.12240410  0.58583112  0.17875756    -0.83000
C332        C  0.09290944  0.57877455  0.05498095     0.96300
O333        O  0.08428728  0.56011456  0.07378228    -0.72100
O334        O  0.12127352  0.55598903  0.09970432    -0.75700
Al335      Al  0.09322410  0.55820606  0.11578177     1.49000
C336        C  0.14326701  0.56438057  0.11131119     0.91600
O337        O  0.16249434  0.62877063  0.11276032    -0.81900
O338        O  0.09941454  0.62706257  0.14268445    -0.75500
Al339      Al  0.14053717  0.60596124  0.14429557     1.90100
O340        O  0.13634494  0.64213785  0.09740971    -0.74600
O341        O  0.06543835  0.58937015  0.10704075    -0.74400
O342        O  0.10387060  0.60186983  0.06435875    -0.80100
O343        O  0.06277072  0.55603557  0.13123942    -0.78300
O344        O  0.11203559  0.59248467  0.12139254    -1.14400
O345        O  0.09777640  0.54851843  0.15649544    -0.73600
C346        C  0.10688975  0.56186088  0.18050574     0.97100
C347        C  0.15884142  0.64547494  0.09959581     0.93500
Al348      Al  0.10207851  0.61322856  0.10422543     1.55600
O349        O  0.15149633  0.58195118  0.13152317    -0.78200
C350        C  0.05240651  0.56856003  0.12191464     0.97700
C351        C  0.11744165  0.63736743  0.16202890     0.92500
O352        O  0.13571456  0.63256135  0.16194664    -0.83600
O353        O  0.78517472  0.54097793  0.00988665    -0.83000
C354        C  0.81065793  0.57821808  0.38928366     0.96300
O355        O  0.79919043  0.58521960  0.40814428    -0.72100
O356        O  0.75771974  0.55130284  0.43734663    -0.75700
Al357      Al  0.79063548  0.57752591  0.45060479     1.49000
C358        C  0.74400891  0.52776785  0.44410966     0.91600
O359        O  0.79137823  0.50787156  0.43609795    -0.81900
O360        O  0.85033085  0.56833237  0.47631779    -0.75500
Al361      Al  0.78821494  0.52609328  0.47069986     1.90100
O362        O  0.83202342  0.53545074  0.42750661    -0.74600
O363        O  0.85076514  0.60517362  0.44214462    -0.74400
O364        O  0.82516277  0.56973328  0.39778990    -0.80100
O365        O  0.81999412  0.60804976  0.46433331    -0.78300
O366        O  0.80486752  0.55738765  0.45278688    -1.14400
O367        O  0.78002222  0.57283096  0.49230507    -0.73600
C368        C  0.77955700  0.55828728  0.01518155     0.97100
C369        C  0.81286121  0.51296793  0.42483272     0.93500
Al370      Al  0.83661273  0.56870366  0.43728230     1.55600
O371        O  0.75398645  0.51596483  0.45678478    -0.78200
C372        C  0.84303106  0.61850744  0.45575376     0.97700
C373        C  0.84117606  0.54860343  0.49345797     0.92500
O374        O  0.81858942  0.52963802  0.48973159    -0.83600
O375        O  0.89998799  0.79904777  0.41514347    -0.83000
C376        C  0.90586598  0.77530179  0.03505673     0.96300
O377        O  0.88954001  0.77686436  0.01828915    -0.72100
O378        O  0.87777734  0.79673137  0.47344541    -0.75700
Al379      Al  0.88494950  0.76898325  0.47581594     1.49000
C380        C  0.89190390  0.82104287  0.47323046     0.91600
O381        O  0.96194160  0.83668232  0.46032071    -0.81900
O382        O  0.96190870  0.78737542  0.44891889    -0.75500
Al383      Al  0.92954291  0.81475723  0.44119802     1.90100
O384        O  0.96318064  0.81486154  0.49982555    -0.74600
O385        O  0.92293675  0.74496381  0.47176864    -0.74400
O386        O  0.92457833  0.77403144  0.02344826    -0.80100
O387        O  0.88375328  0.73693150  0.48060050    -0.78300
O388        O  0.91867887  0.78818015  0.46746840    -1.14400
O389        O  0.87643938  0.75982582  0.43375324    -0.73600
C390        C  0.88237143  0.77581299  0.41204985     0.97100
C391        C  0.97296084  0.83551969  0.48429335     0.93500
Al392      Al  0.94111258  0.78053190  0.48473773     1.55600
O393        O  0.91531628  0.83160161  0.46515611    -0.78200
C394        C  0.89925709  0.72902539  0.47543238     0.97700
C395        C  0.96066526  0.79382665  0.42167231     0.92500
O396        O  0.94486975  0.80107169  0.41439447    -0.83600
O397        O  0.85088774  0.80229044  0.16759158    -0.83000
C398        C  0.85601936  0.76602066  0.28573975     0.96300
O399        O  0.83628269  0.76516654  0.27405947    -0.72100
O400        O  0.83826147  0.80783849  0.25358617    -0.75700
Al401      Al  0.82951258  0.77532974  0.23484759     1.49000
C402        C  0.84858407  0.82945793  0.24005978     0.91600
O403        O  0.90596433  0.83159660  0.22454181    -0.81900
O404        O  0.87997885  0.76348722  0.18385900    -0.75500
Al405      Al  0.87738790  0.81525356  0.19720734     1.90100
O406        O  0.91134462  0.79801706  0.22938770    -0.74600
O407        O  0.84755314  0.73481303  0.22580518    -0.74400
O408        O  0.87520735  0.77032828  0.26942741    -0.80100
O409        O  0.81507275  0.74098660  0.21841472    -0.78300
O410        O  0.86123519  0.78630279  0.21984486    -1.14400
O411        O  0.81717558  0.78378951  0.19844796    -0.73600
C412        C  0.82701720  0.79268536  0.17230051     0.97100
C413        C  0.91965530  0.82200818  0.23234454     0.93500
Al414      Al  0.87719317  0.76828614  0.22654067     1.55600
O415        O  0.86306238  0.83347071  0.21724976    -0.78200
C416        C  0.82419047  0.72604038  0.21947793     0.97700
C417        C  0.88997891  0.78121888  0.16410887     0.92500
O418        O  0.89524548  0.80390804  0.17071688    -0.83600
O419        O  0.71155542  0.53469933  0.25512794    -0.83000
C420        C  0.75869683  0.56754215  0.14172980     0.96300
O421        O  0.74078311  0.57122175  0.15124002    -0.72100
O422        O  0.69809278  0.53245106  0.17432602    -0.75700
Al423      Al  0.72388535  0.56511850  0.19022406     1.49000
C424        C  0.68873895  0.50960977  0.18409648     0.91600
O425        O  0.74615433  0.50877414  0.20579967    -0.81900
O426        O  0.78327863  0.57783987  0.24510836    -0.75500
Al427      Al  0.72967407  0.52409860  0.22906732     1.90100
O428        O  0.78412298  0.54334090  0.20540954    -0.74600
O429        O  0.78250609  0.60478352  0.19739715    -0.74400
O430        O  0.77413790  0.56553329  0.15972256    -0.80100
O431        O  0.74472053  0.60040500  0.20319892    -0.78300
O432        O  0.74344114  0.55340653  0.20711334    -1.14400
O433        O  0.70425525  0.56050282  0.22612589    -0.73600
C434        C  0.70117808  0.54828145  0.25078670     0.97100
C435        C  0.77032629  0.51921318  0.20329779     0.93500
Al436      Al  0.77775639  0.57128534  0.20224349     1.55600
O437        O  0.70009181  0.50454538  0.20471832    -0.78200
C438        C  0.76869091  0.61479992  0.20070151     0.97700
C439        C  0.77434609  0.56008103  0.26523075     0.92500
O440        O  0.75594434  0.53778057  0.25901632    -0.83600
O441        O  0.61501890  0.48786170  0.33589882    -0.83000
C442        C  0.56397262  0.46884593  0.44741234     0.96300
O443        O  0.58012862  0.49152239  0.43849690    -0.72100
O444        O  0.62321588  0.49298415  0.42297821    -0.75700
Al445      Al  0.60124917  0.50243766  0.40223316     1.49000
C446        C  0.63625320  0.48388290  0.41113554     0.91600
O447        O  0.58321617  0.42667886  0.38431244    -0.81900
O448        O  0.54476053  0.45721011  0.34400980    -0.75500
Al449      Al  0.59852198  0.45855774  0.36124179     1.90100
O450        O  0.54420180  0.42069096  0.38169087    -0.74600
O451        O  0.54419420  0.48325530  0.39263898    -0.74400
O452        O  0.55128086  0.45063776  0.42876304    -0.80100
O453        O  0.58210421  0.51660484  0.38360554    -0.78300
O454        O  0.58320324  0.47197705  0.38338765    -1.14400
O455        O  0.62588749  0.51875355  0.37009160    -0.73600
C456        C  0.62803980  0.51125092  0.34373380     0.97100
C457        C  0.55906329  0.41174961  0.38535711     0.93500
Al458      Al  0.54896071  0.45446992  0.38662358     1.55600
O459        O  0.62876120  0.47099998  0.38651427    -0.78200
C460        C  0.55800440  0.50675335  0.38561773     0.97700
C461        C  0.55429552  0.44931574  0.32369775     0.92500
O462        O  0.57214292  0.44459540  0.33038365    -0.83600
O463        O  0.48154208  0.61128764  0.42207937    -0.83000
C464        C  0.46533591  0.57190325  0.30223012     0.96300
O465        O  0.48741719  0.58715767  0.31314252    -0.72100
O466        O  0.48772459  0.62819778  0.33549674    -0.75700
Al467      Al  0.49684843  0.60444752  0.35224938     1.49000
C468        C  0.47858477  0.63995678  0.35030102     0.91600
O469        O  0.42174844  0.58648230  0.37186752    -0.81900
O470        O  0.44856677  0.54198950  0.40305219    -0.75500
Al471      Al  0.45272670  0.59819176  0.39553107     1.90100
O472        O  0.41464092  0.54709181  0.36587781    -0.74600
O473        O  0.47697482  0.54645870  0.35489296    -0.74400
O474        O  0.44638344  0.55784535  0.31946137    -0.80100
O475        O  0.51030378  0.58345499  0.36700439    -0.78300
O476        O  0.46599676  0.58476075  0.36973054    -1.14400
O477        O  0.51225812  0.62592896  0.38731463    -0.73600
C478        C  0.50482638  0.62583142  0.41450660     0.97100
C479        C  0.40654339  0.56290577  0.36585859     0.93500
Al480      Al  0.44815031  0.55112565  0.36139515     1.55600
O481        O  0.46645892  0.63080417  0.37514928    -0.78200
C482        C  0.50034797  0.55947858  0.36234878     0.97700
C483        C  0.44063956  0.54984274  0.42519265     0.92500
O484        O  0.43683137  0.56870099  0.42215106    -0.83600
O485        O  0.53656106  0.71932906  0.49544600    -0.83000
C486        C  0.56305754  0.76290210  0.11322369     0.96300
O487        O  0.56774440  0.74570622  0.10335979    -0.72100
O488        O  0.52456294  0.70675750  0.08215983    -0.75700
Al489      Al  0.55798608  0.72717516  0.06470879     1.49000
C490        C  0.50336637  0.69662253  0.06802212     0.91600
O491        O  0.50745243  0.75404167  0.04361758    -0.81900
O492        O  0.57929173  0.79025283  0.01147162    -0.75500
Al493      Al  0.52321708  0.73772294  0.02104318     1.90100
O494        O  0.54295313  0.79121477  0.04808030    -0.74600
O495        O  0.60110939  0.78359269  0.05999198    -0.74400
O496        O  0.56106609  0.77825033  0.09506814    -0.80100
O497        O  0.59265177  0.74440948  0.04913255    -0.78300
O498        O  0.55011618  0.74906182  0.04627368    -1.14400
O499        O  0.54910381  0.70403374  0.03048920    -0.73600
C500        C  0.54150096  0.70404783  0.00345699     0.97100
C501        C  0.51865070  0.77818820  0.04793049     0.93500
Al502      Al  0.56949426  0.78292205  0.05322527     1.55600
O503        O  0.50128520  0.70640591  0.04321533    -0.78200
C504        C  0.60864805  0.76818955  0.05219197     0.97700
C505        C  0.56227537  0.78256697  0.48898021     0.92500
O506        O  0.53917150  0.76427808  0.49149992    -0.83600
O507        O  0.79400239  0.85097520  0.08798049    -0.83000
C508        C  0.76301994  0.86519965  0.47222179     0.96300
O509        O  0.75946034  0.84345529  0.48108446    -0.72100
O510        O  0.80144534  0.84442063  0.50065014    -0.75700
Al511      Al  0.76888249  0.83390305  0.01963194     1.49000
C512        C  0.82333129  0.85650652  0.01372338     0.91600
O513        O  0.82248222  0.91046350  0.03710271    -0.81900
O514        O  0.75282729  0.87829702  0.07632411    -0.75500
Al515      Al  0.80660567  0.87952222  0.06142337     1.90100
O516        O  0.78805521  0.91433461  0.03616254    -0.74600
O517        O  0.72748443  0.84921863  0.02935789    -0.74400
O518        O  0.76566417  0.88234961  0.49123394    -0.80100
O519        O  0.73424874  0.81697177  0.03563863    -0.78300
O520        O  0.77844523  0.86417100  0.03812029    -1.14400
O521        O  0.77771974  0.81952370  0.05380212    -0.73600
C522        C  0.78574832  0.82773282  0.08066100     0.97100
C523        C  0.81214628  0.92416722  0.03317572     0.93500
Al524      Al  0.75989602  0.87960765  0.03350224     1.55600
O525        O  0.82638060  0.86818307  0.03883123    -0.78200
C526        C  0.71883779  0.82541936  0.03314435     0.97700
C527        C  0.77046109  0.88887609  0.09611805     0.92500
O528        O  0.79312503  0.89382740  0.09013400    -0.83600
O529        O  0.94775303  0.15567353  0.16282551    -0.83000
C530        C  0.89936628  0.14031688  0.27713805     0.96300
O531        O  0.91834928  0.16188104  0.26899322    -0.72100
O532        O  0.95858976  0.15988515  0.24985261    -0.75700
Al533      Al  0.93795553  0.17196947  0.23128219     1.49000
C534        C  0.96926853  0.14875893  0.23710857     0.91600
O535        O  0.91308329  0.09479779  0.21289447    -0.81900
O536        O  0.87837037  0.12876834  0.17322256    -0.75500
Al537      Al  0.92992837  0.12635640  0.18894549     1.90100
O538        O  0.87555047  0.09266189  0.21336078    -0.74600
O539        O  0.88133560  0.15820046  0.21851791    -0.74400
O540        O  0.88433038  0.12441204  0.25763335    -0.80100
O541        O  0.92121336  0.18966913  0.21551794    -0.78300
O542        O  0.91712282  0.14211215  0.21194907    -1.14400
O543        O  0.96152077  0.18675683  0.19752543    -0.73600
C544        C  0.96232059  0.17896345  0.17072561     0.97100
C545        C  0.88886861  0.08190711  0.21674960     0.93500
Al546      Al  0.88291271  0.12742830  0.21553299     1.55600
O547        O  0.96037463  0.13660849  0.21236382    -0.78200
C548        C  0.89743610  0.18165421  0.21402153     0.97700
C549        C  0.88578761  0.11863430  0.15338378     0.92500
O550        O  0.90291133  0.11290969  0.15922657    -0.83600
O551        O  0.81238492  0.28063848  0.25084799    -0.83000
C552        C  0.80677541  0.24097275  0.13160484     0.96300
O553        O  0.82650904  0.25994772  0.14343073    -0.72100
O554        O  0.82275390  0.29918528  0.16450060    -0.75700
Al555      Al  0.83322069  0.27693401  0.18274144     1.49000
C556        C  0.81242863  0.30999921  0.17871508     0.91600
O557        O  0.75704333  0.25428158  0.19455372    -0.81900
O558        O  0.78440940  0.21319786  0.23428389    -0.75500
Al559      Al  0.78570458  0.26705396  0.22158920     1.90100
O560        O  0.75230953  0.21542661  0.18994105    -0.74600
O561        O  0.81746279  0.21906713  0.19065589    -0.74400
O562        O  0.78797644  0.22525822  0.14804610    -0.80100
O563        O  0.84890641  0.25851208  0.19866754    -0.78300
O564        O  0.80202907  0.25511407  0.19824774    -1.14400
O565        O  0.84561136  0.29799543  0.21921734    -0.73600
C566        C  0.83611071  0.29572385  0.24590075     0.97100
C567        C  0.74337682  0.23057576  0.18794904     0.93500
Al568      Al  0.78683408  0.22110445  0.19129046     1.55600
O569        O  0.79932570  0.29994075  0.20255811    -0.78200
C570        C  0.84076066  0.23464001  0.19682402     0.97700
C571        C  0.77362315  0.22016996  0.25400469     0.92500
O572        O  0.76840388  0.23753549  0.24732626    -0.83600
O573        O  0.04035991  0.19827506  0.07374157    -0.83000
C574        C  0.08876699  0.24184861  0.46681389     0.96300
O575        O  0.06633476  0.23342798  0.47764831    -0.72100
O576        O  0.02670283  0.20215472  0.51215093    -0.75700
Al577      Al  0.05852285  0.23509041  0.01896321     1.49000
C578        C  0.02382092  0.17981052  0.00929692     0.91600
O579        O  0.08664162  0.18094411  0.03385703    -0.81900
O580        O  0.12184840  0.23778062  0.06764358    -0.75500
Al581      Al  0.06455377  0.19241137  0.05136439     1.90100
O582        O  0.11727674  0.21529285  0.01094417    -0.74600
O583        O  0.11583791  0.27338383  0.04280334    -0.74400
O584        O  0.10837395  0.25024650  0.48414664    -0.80100
O585        O  0.08269641  0.27157832  0.02053790    -0.78300
O586        O  0.07894171  0.22324079  0.03253372    -1.14400
O587        O  0.04736943  0.23690887  0.05957417    -0.73600
C588        C  0.03754788  0.21775251  0.07785749     0.97100
C589        C  0.10689371  0.19169211  0.01769171     0.93500
Al590      Al  0.11311008  0.24249288  0.02691908     1.55600
O591        O  0.04013916  0.17397614  0.01887780    -0.78200
C592        C  0.10375396  0.28433686  0.03434994     0.97700
C593        C  0.10888668  0.22328791  0.08967288     0.92500
O594        O  0.08583407  0.20563054  0.08610299    -0.83600
O595        O  0.17523506  0.47689579  0.50929849    -0.83000
C596        C  0.18825929  0.43890840  0.11642136     0.96300
O597        O  0.17485192  0.44817907  0.10639946    -0.72100
O598        O  0.16532062  0.47849831  0.07106504    -0.75700
Al599      Al  0.16162773  0.44470024  0.06636540     1.49000
C600        C  0.18432891  0.50126787  0.07008861     0.91600
O601        O  0.24271334  0.49616433  0.04219639    -0.81900
O602        O  0.22195383  0.44079338  0.01496577    -0.75500
Al603      Al  0.20824186  0.48446761  0.02781368     1.90100
O604        O  0.23832450  0.46436471  0.07145555    -0.74600
O605        O  0.17969283  0.40586434  0.04026675    -0.74400
O606        O  0.19709895  0.42868167  0.09806101    -0.80100
O607        O  0.14943821  0.40791389  0.06589682    -0.78300
O608        O  0.19279234  0.45533987  0.04984597    -1.14400
O609        O  0.14613584  0.44081753  0.02728230    -0.73600
C610        C  0.15433133  0.45863315  0.00737195     0.97100
C611        C  0.25174658  0.48706949  0.06151614     0.93500
Al612      Al  0.20794303  0.43653484  0.05569796     1.55600
O613        O  0.20560929  0.50543470  0.05932566    -0.78200
C614        C  0.15719691  0.39503039  0.05088318     0.97700
C615        C  0.21830316  0.45112027  0.49253900     0.92500
O616        O  0.21104276  0.46738466  0.49501489    -0.83600
O617        O  0.85472354  0.37362949  0.34108318    -0.83000
C618        C  0.89484486  0.42526709  0.44813831     0.96300
O619        O  0.88563809  0.40248622  0.43820151    -0.72100
O620        O  0.85490842  0.36310697  0.40353374    -0.75700
Al621      Al  0.88872729  0.39248778  0.39801193     1.49000
C622        C  0.83242670  0.35981919  0.40267142     0.91600
O623        O  0.83861666  0.42374227  0.37250464    -0.81900
O624        O  0.89308893  0.45709617  0.34700082    -0.75500
Al625      Al  0.84959369  0.39983109  0.35947021     1.90100
O626        O  0.86931975  0.45053544  0.40324391    -0.74600
O627        O  0.92802840  0.44979486  0.37292732    -0.74400
O628        O  0.90492890  0.44455964  0.43014606    -0.80100
O629        O  0.92554869  0.41653089  0.39656523    -0.78300
O630        O  0.87846802  0.41336592  0.38170793    -1.14400
O631        O  0.89193699  0.38008576  0.35883895    -0.73600
C632        C  0.87350261  0.36957841  0.33995929     0.97100
C633        C  0.84747686  0.44232176  0.39135625     0.93500
Al634      Al  0.89724977  0.44747949  0.38783371     1.55600
O635        O  0.82849481  0.37698162  0.39141300    -0.78200
C636        C  0.93862840  0.43738974  0.38185195     0.97700
C637        C  0.88233539  0.44395258  0.32324481     0.92500
O638        O  0.86663412  0.42005525  0.32477596    -0.83600
O639        O  0.12705326  0.51917474  0.42157730    -0.83000
C640        C  0.09075866  0.53135899  0.30746032     0.96300
O641        O  0.08854795  0.51025955  0.31696857    -0.72100
O642        O  0.13199639  0.51340101  0.33425532    -0.75700
Al643      Al  0.09973776  0.50148473  0.35438824     1.49000
C644        C  0.15401653  0.52374417  0.34647129     0.91600
O645        O  0.15341091  0.57894501  0.37023847    -0.81900
O646        O  0.08457262  0.54541016  0.41215669    -0.75500
Al647      Al  0.13853705  0.54769523  0.39488291     1.90100
O648        O  0.11814932  0.58123298  0.37097691    -0.74600
O649        O  0.05800996  0.51612409  0.36531524    -0.74400
O650        O  0.09503009  0.54927625  0.32607080    -0.80100
O651        O  0.06558270  0.48442947  0.37202040    -0.78300
O652        O  0.10963549  0.53179351  0.37267888    -1.14400
O653        O  0.10939955  0.48740735  0.38788392    -0.73600
C654        C  0.11784960  0.49568553  0.41454399     0.97100
C655        C  0.14219896  0.59197033  0.36692860     0.93500
Al656      Al  0.09053371  0.54666790  0.36896527     1.55600
O657        O  0.15798996  0.53623758  0.37115387    -0.78200
C658        C  0.04988302  0.49255271  0.37019588     0.97700
C659        C  0.10262619  0.55650662  0.43141549     0.92500
O660        O  0.12533219  0.56182135  0.42469357    -0.83600
O661        O  0.79441296  0.92240166  0.34069499    -0.83000
C662        C  0.75694434  0.90895725  0.22160052     0.96300
O663        O  0.74928171  0.89039780  0.24063415    -0.72100
O664        O  0.78698288  0.88715371  0.26549342    -0.75700
Al665      Al  0.75955723  0.88999018  0.28260939     1.49000
C666        C  0.80972722  0.89680337  0.27498326     0.91600
O667        O  0.82602780  0.96155441  0.26907412    -0.81900
O668        O  0.76329401  0.95592093  0.30998472    -0.75500
Al669      Al  0.80824328  0.94046878  0.30414653     1.90100
O670        O  0.79769917  0.97380275  0.26149323    -0.74600
O671        O  0.72905317  0.91831330  0.27405527    -0.74400
O672        O  0.76595874  0.93206829  0.23044105    -0.80100
O673        O  0.72888105  0.88692693  0.29949918    -0.78300
O674        O  0.77765642  0.92441999  0.28557745    -1.14400
O675        O  0.76697350  0.88361813  0.32376898    -0.73600
C676        C  0.77958225  0.89870217  0.34560364     0.97100
C677        C  0.82025992  0.97753512  0.25792420     0.93500
Al678      Al  0.76499431  0.94340852  0.27025361     1.55600
O679        O  0.81953331  0.91671244  0.29175783    -0.78200
C680        C  0.71703977  0.89769427  0.28928863     0.97700
C681        C  0.78275356  0.96754994  0.32726076     0.92500
O682        O  0.80326034  0.96698406  0.32198214    -0.83600
O683        O  0.53104991  0.78460851  0.24535075    -0.83000
C684        C  0.56921780  0.81330028  0.36493464     0.96300
O685        O  0.57673525  0.80294974  0.34509668    -0.72100
O686        O  0.54004246  0.75981106  0.32207767    -0.75700
Al687      Al  0.56610371  0.79074968  0.30404850     1.49000
C688        C  0.51718540  0.74541044  0.31331853     0.91600
O689        O  0.49585285  0.78944698  0.31475213    -0.81900
O690        O  0.55648784  0.85012807  0.27719251    -0.75500
Al691      Al  0.51567539  0.78778135  0.28119678     1.90100
O692        O  0.52230932  0.83021457  0.32557487    -0.74600
O693        O  0.59276246  0.84960941  0.31249212    -0.74400
O694        O  0.55670670  0.82420279  0.35694945    -0.80100
O695        O  0.59529657  0.81968922  0.28651275    -0.78300
O696        O  0.54585647  0.80462017  0.30076109    -1.14400
O697        O  0.55970034  0.77590232  0.26355094    -0.73600
C698        C  0.54758554  0.77787134  0.24105729     0.97100
C699        C  0.50005634  0.81042769  0.32678207     0.93500
Al700      Al  0.55614292  0.83590671  0.31665625     1.55600
O701        O  0.50666130  0.75370718  0.29507108    -0.78200
C702        C  0.60588668  0.84205420  0.29772724     0.97700
C703        C  0.53770786  0.84061671  0.25867112     0.92500
O704        O  0.51871304  0.81802199  0.26241053    -0.83600
O705        O  0.56858200  0.13057437  0.08153158    -0.83000
C706        C  0.57076933  0.10549594  0.20046632     0.96300
O707        O  0.55533228  0.10704981  0.18212285    -0.72100
O708        O  0.54321228  0.12657247  0.13526354    -0.75700
Al709      Al  0.55150462  0.09960256  0.14007204     1.49000
C710        C  0.55651677  0.15098471  0.13631324     0.91600
O711        O  0.62818652  0.16837200  0.13025381    -0.81900
O712        O  0.62975174  0.11966225  0.11718735    -0.75500
Al713      Al  0.59681011  0.14660297  0.10901555     1.90100
O714        O  0.62804238  0.14507900  0.16904053    -0.74600
O715        O  0.59009468  0.07660392  0.13773099    -0.74400
O716        O  0.58902382  0.10240877  0.19080001    -0.80100
O717        O  0.55079745  0.06786382  0.14688540    -0.78300
O718        O  0.58541543  0.11932461  0.13382530    -1.14400
O719        O  0.54498837  0.09045617  0.09771346    -0.73600
C720        C  0.55164293  0.10722108  0.07668562     0.97100
C721        C  0.63814000  0.16626899  0.15473173     0.93500
Al722      Al  0.60728023  0.11152300  0.15212222     1.55600
O723        O  0.58069385  0.16209994  0.13251212    -0.78200
C724        C  0.56657633  0.06031862  0.14148969     0.97700
C725        C  0.62885359  0.12657439  0.08995498     0.92500
O726        O  0.61362659  0.13446633  0.08272508    -0.83600
O727        O  0.45142160  0.86869475  0.16892343    -0.83000
C728        C  0.48143547  0.91310576  0.05347556     0.96300
O729        O  0.46990780  0.91989511  0.07259916    -0.72100
O730        O  0.42757580  0.88364222  0.09744708    -0.75700
Al731      Al  0.45931821  0.90921687  0.11445663     1.49000
C732        C  0.41370879  0.85990907  0.10291066     0.91600
O733        O  0.46098633  0.84150363  0.09444488    -0.81900
O734        O  0.51860252  0.89917674  0.14121078    -0.75500
Al735      Al  0.45695539  0.85723694  0.13105656     1.90100
O736        O  0.50210064  0.86926938  0.08922911    -0.74600
O737        O  0.51963501  0.93777656  0.10962407    -0.74400
O738        O  0.49606213  0.90477387  0.06202407    -0.80100
O739        O  0.48770428  0.93885340  0.13147560    -0.78300
O740        O  0.47393091  0.88943539  0.11572943    -1.14400
O741        O  0.44663333  0.90150602  0.15597275    -0.73600
C742        C  0.44682834  0.88637226  0.17622169     0.97100
C743        C  0.48292037  0.84722202  0.08392928     0.93500
Al744      Al  0.50621093  0.90180072  0.10171268     1.55600
O745        O  0.42289497  0.84801529  0.11712702    -0.78200
C746        C  0.51116582  0.94985529  0.12467607     0.97700
C747        C  0.50939201  0.87787150  0.15544092     0.92500
O748        O  0.48699525  0.85926335  0.14954986    -0.83600
O749        O  0.87621193  0.08000283  0.40859435    -0.83000
C750        C  0.85568521  0.09797757  0.02798618     0.96300
O751        O  0.86412099  0.11503959  0.00711118    -0.72100
O752        O  0.90404438  0.11971690  0.47769220    -0.75700
Al753      Al  0.87176393  0.11328916  0.46455248     1.49000
C754        C  0.91741376  0.10955788  0.47137390     0.91600
O755        O  0.87117551  0.04325643  0.48163681    -0.81900
O756        O  0.81021494  0.04346883  0.44724235    -0.75500
Al757      Al  0.87255426  0.06310161  0.44648559     1.90100
O758        O  0.83170768  0.03150327  0.49498291    -0.74600
O759        O  0.81354537  0.08286086  0.47961731    -0.74400
O760        O  0.84227356  0.07419352  0.02156848    -0.80100
O761        O  0.84200298  0.11292263  0.45012112    -0.78300
O762        O  0.85741334  0.07889641  0.46511806    -1.14400
O763        O  0.88193298  0.11754061  0.42297842    -0.73600
C764        C  0.88113068  0.10255632  0.40216526     0.97100
C765        C  0.85066880  0.02788938  0.49560305     0.93500
Al766      Al  0.82706352  0.05990156  0.48440786     1.55600
O767        O  0.90750059  0.08783208  0.45819415    -0.78200
C768        C  0.82018059  0.10217193  0.46254610     0.97700
C769        C  0.81767279  0.03161817  0.42968614     0.92500
O770        O  0.84052405  0.03552203  0.43072293    -0.83600
O771        O  0.76416490  0.22693103  0.00096071    -0.83000
C772        C  0.75705810  0.19370941  0.38247653     0.96300
O773        O  0.77255500  0.21249502  0.39891619    -0.72100
O774        O  0.78518467  0.24656317  0.44332663    -0.75700
Al775      Al  0.77857054  0.21148705  0.44116648     1.49000
C776        C  0.77024147  0.25573992  0.44262827     0.91600
O777        O  0.70108626  0.19987957  0.45601032    -0.81900
O778        O  0.70173218  0.15202679  0.47044920    -0.75500
Al779      Al  0.73377697  0.21197497  0.47534925     1.90100
O780        O  0.70101190  0.17635715  0.41755634    -0.74600
O781        O  0.74181055  0.14948336  0.44933008    -0.74400
O782        O  0.73966503  0.17272186  0.39431597    -0.80100
O783        O  0.78029035  0.18057058  0.43639974    -0.78300
O784        O  0.74496384  0.19613074  0.45017745    -1.14400
O785        O  0.78763911  0.21162835  0.48298962    -0.73600
C786        C  0.78212651  0.22185826  0.00450140     0.97100
C787        C  0.69047603  0.18684594  0.43223062     0.93500
Al788      Al  0.72304203  0.16524831  0.43426666     1.55600
O789        O  0.74680187  0.24190942  0.44986399    -0.78200
C790        C  0.76526987  0.15735936  0.44401367     0.97700
C791        C  0.70324336  0.16076852  0.49734373     0.92500
O792        O  0.71929473  0.18406426  0.50351420    -0.83600
C793        C  0.80300245  0.11304245  0.45722549    -0.07300
C794        C  0.80565189  0.12596779  0.42931695    -0.18500
C795        C  0.79226047  0.13908232  0.42377835     0.09900
C796        C  0.77575327  0.13968254  0.44660209    -0.07300
C797        C  0.77178634  0.12553113  0.47381007    -0.18500
C798        C  0.78551503  0.11261663  0.47960931     0.09900
S799        S  0.79704552  0.15466635  0.38698298    -0.33500
S800        S  0.78136673  0.09668165  0.01438684    -0.33500
H801        H  0.80766853  0.10800023  0.02190330     0.27900
H802        H  0.77168401  0.15011796  0.38494387     0.27900
H803        H  0.81857999  0.12615680  0.41167484     0.18500
H804        H  0.75995539  0.12539384  0.98926095     0.18500
C805        C  0.64753365  0.12793796  0.06679830    -0.07300
C806        C  0.67358918  0.14016236  0.07511267    -0.18500
C807        C  0.69289399  0.14819118  0.05275141     0.09900
C808        C  0.68617241  0.14394604  0.02130460    -0.07300
C809        C  0.66002807  0.12862437  0.01337633    -0.18500
C810        C  0.64058502  0.12090198  0.03581638     0.09900
S811        S  0.72582230  0.16480919  0.06559071    -0.33500
S812        S  0.60704938  0.10313371  0.02466616    -0.33500
H813        H  0.61127644  0.10151595  0.99311008     0.27900
H814        H  0.73446384  0.15637783  0.04044778     0.27900
H815        H  0.67906184  0.14516802  0.09895927     0.18500
H816        H  0.65476903  0.12493068  0.98934175     0.18500
C817        C  0.52846174  0.97750944  0.13297441    -0.07300
C818        C  0.54991428  0.99312436  0.11408728    -0.18500
C819        C  0.56424688  0.02012665  0.11782750     0.09900
C820        C  0.55655458  0.03203130  0.14026908    -0.07300
C821        C  0.53632126  0.01626729  0.16043886    -0.18500
C822        C  0.52270962  0.98932387  0.15758424     0.09900
S823        S  0.59049531  0.03847111  0.09153435    -0.33500
S824        S  0.49831375  0.97128863  0.18624577    -0.33500
H825        H  0.50293120  0.95039996  0.18709168     0.27900
H826        H  0.60858236  0.05091697  0.11515710     0.27900
H827        H  0.55492809  0.98441594  0.09542787     0.18500
H828        H  0.53080108  0.02509537  0.17847895     0.18500
C829        C  0.53742529  0.85495534  0.23133050    -0.07300
C830        C  0.53409407  0.84277772  0.20279759    -0.18500
C831        C  0.52797619  0.85202047  0.17663349     0.09900
C832        C  0.52443483  0.87357920  0.17898835    -0.07300
C833        C  0.53001333  0.88722319  0.20687130    -0.18500
C834        C  0.53637573  0.87796036  0.23327608     0.09900
S835        S  0.52352459  0.83469695  0.14109940    -0.33500
S836        S  0.54006197  0.89363948  0.26991740    -0.33500
H837        H  0.53644158  0.91375838  0.25905470     0.27900
H838        H  0.53184831  0.85657497  0.12218216     0.27900
H839        H  0.53521612  0.82524989  0.20116352     0.18500
H840        H  0.52707425  0.90364804  0.20860551     0.18500
C841        C  0.79986946  0.01257701  0.40749847    -0.07300
C842        C  0.79372848  0.02149530  0.38080319    -0.18500
C843        C  0.78520066  0.00603706  0.35433986     0.09900
C844        C  0.78214467  0.98103572  0.35513500    -0.07300
C845        C  0.78520184  0.97114769  0.38301254    -0.18500
C846        C  0.79405519  0.98664757  0.40916357     0.09900
S847        S  0.78228989  0.02052535  0.31938859    -0.33500
S848        S  0.79978552  0.97307061  0.44321030    -0.33500
H849        H  0.79599595  0.98889948  0.46401110     0.27900
H850        H  0.76250487  0.99743121  0.30674908     0.27900
H851        H  0.79799095  0.04138729  0.37959775     0.18500
H852        H  0.78267080  0.95185936  0.38375493     0.18500
C853        C  0.68868794  0.88539552  0.29333759    -0.07300
C854        C  0.67403676  0.88616943  0.26854551    -0.18500
C855        C  0.64699228  0.87285887  0.26958507     0.09900
C856        C  0.63414351  0.85850109  0.29602381    -0.07300
C857        C  0.64864236  0.85817375  0.32111059    -0.18500
C858        C  0.67568134  0.87150465  0.32016386     0.09900
S859        S  0.62997811  0.87413067  0.23611175    -0.33500
S860        S  0.69234124  0.87019623  0.35398872    -0.33500
H861        H  0.71315859  0.89568719  0.35122359     0.27900
H862        H  0.60776301  0.87036223  0.25169533     0.27900
H863        H  0.68370385  0.89660169  0.24776701     0.18500
H864        H  0.63876485  0.84712467  0.34149665     0.18500
C865        C  0.96680650  0.44816069  0.37611875    -0.07300
C866        C  0.98161785  0.44313805  0.39713473    -0.18500
C867        C  0.00877553  0.45642807  0.39533268     0.09900
C868        C  0.02153183  0.47500291  0.37190793    -0.07300
C869        C  0.00665919  0.47870581  0.34992177    -0.18500
C870        C  0.97976396  0.46531634  0.35139292     0.09900
S871        S  0.02611179  0.45059339  0.42492497    -0.33500
S872        S  0.96322107  0.47044107  0.32022847    -0.33500
H873        H  0.94399893  0.44419018  0.31935040     0.27900
H874        H  0.04382376  0.47702911  0.42916847     0.27900
H875        H  0.97213921  0.42991832  0.41610451     0.18500
H876        H  0.01617141  0.49232710  0.33126915     0.18500
C877        C  0.81090710  0.33472530  0.41322719    -0.07300
C878        C  0.80894690  0.32877976  0.44463337    -0.18500
C879        C  0.79340481  0.30332692  0.45509255     0.09900
C880        C  0.78081709  0.28303478  0.43364859    -0.07300
C881        C  0.78180434  0.28904876  0.40236126    -0.18500
C882        C  0.79618502  0.31471366  0.39204338     0.09900
S883        S  0.79145561  0.29783828  0.49593392    -0.33500
S884        S  0.79698997  0.32039514  0.35129457    -0.33500
H885        H  0.79619695  0.34339723  0.35435318     0.27900
H886        H  0.76649213  0.27608525  0.49573890     0.27900
H887        H  0.82033269  0.34386572  0.46103761     0.18500
H888        H  0.77214841  0.27358448  0.38575092     0.18500
C889        C  0.11897712  0.47826041  0.43734888    -0.07300
C890        C  0.13276013  0.46582245  0.42936928    -0.18500
C891        C  0.14179786  0.45588827  0.45220365     0.09900
C892        C  0.13604232  0.45765144  0.48317564    -0.07300
C893        C  0.11930787  0.46677129  0.49068113    -0.18500
C894        C  0.11110482  0.47764147  0.46815541     0.09900
S895        S  0.16252978  0.44312092  0.44217534    -0.33500
S896        S  0.09274614  0.49241593  0.48080087    -0.33500
H897        H  0.08366454  0.49428249  0.45182049     0.27900
H898        H  0.16055184  0.44448993  0.41008418     0.27900
H899        H  0.13865984  0.46627317  0.40568943     0.18500
H900        H  0.11496530  0.46808069  0.51462253     0.18500
C901        C  0.14051872  0.36684727  0.04688135    -0.07300
C902        C  0.13668925  0.35074372  0.07216077    -0.18500
C903        C  0.12383194  0.32374882  0.06898855     0.09900
C904        C  0.11477252  0.31243074  0.03978871    -0.07300
C905        C  0.11787289  0.32855731  0.01468113    -0.18500
C906        C  0.13070737  0.35558911  0.01788679     0.09900
S907        S  0.11936109  0.30483463  0.10313000    -0.33500
S908        S  0.13233570  0.37303049  0.48430833    -0.33500
H909        H  0.13192340  0.39356508  0.49956711     0.27900
H910        H  0.09592980  0.28323538  0.09397057     0.27900
H911        H  0.14428377  0.35930801  0.09443884     0.18500
H912        H  0.10982916  0.31856669  0.49251460     0.18500
C913        C  0.99759851  0.16041743  0.49317483    -0.07300
C914        C  0.98666405  0.13408801  0.00450020    -0.18500
C915        C  0.96069612  0.11634402  0.99698358     0.09900
C916        C  0.94545047  0.12519928  0.47749874    -0.07300
C917        C  0.95769392  0.15100417  0.46769915    -0.18500
C918        C  0.98333264  0.16848896  0.47485519     0.09900
S919        S  0.94645384  0.08389494  0.01201678    -0.33500
S920        S  0.99598203  0.20088952  0.46006265    -0.33500
H921        H  0.02065292  0.20490535  0.45392643     0.27900
H922        H  0.92113153  0.07935797  0.01459766     0.27900
H923        H  0.99698626  0.12775941  0.01920169     0.18500
H924        H  0.94692929  0.15779207  0.45447899     0.18500
C925        C  0.66360089  0.18779292  0.16446638    -0.07300
C926        C  0.68217770  0.20107278  0.14136810    -0.18500
C927        C  0.70834572  0.21679597  0.14849576     0.09900
C928        C  0.71617550  0.21963042  0.17944257    -0.07300
C929        C  0.69751003  0.20797641  0.20269911    -0.18500
C930        C  0.67131373  0.19229880  0.19558756     0.09900
S931        S  0.73096736  0.23055480  0.11695703    -0.33500
S932        S  0.64882645  0.17801420  0.22709540    -0.33500
H933        H  0.62767781  0.17668640  0.21146438     0.27900
H934        H  0.75091015  0.25091428  0.13353304     0.27900
H935        H  0.67660367  0.19767456  0.11737761     0.18500
H936        H  0.70353018  0.21020811  0.22652750     0.18500
C937        C  0.85217344  0.31271608  0.27112156    -0.07300
C938        C  0.87054603  0.33850215  0.26399532    -0.18500
C939        C  0.88041640  0.35754017  0.28687433     0.09900
C940        C  0.87208555  0.35059246  0.31752391    -0.07300
C941        C  0.85622076  0.32444426  0.32513010    -0.18500
C942        C  0.84632878  0.30539281  0.30236101     0.09900
S943        S  0.90142649  0.39056589  0.27505520    -0.33500
S944        S  0.82520153  0.27241892  0.31461738    -0.33500
H945        H  0.83074075  0.26103959  0.28962923     0.27900
H946        H  0.91214049  0.40001742  0.30413440     0.27900
H947        H  0.87557470  0.34433426  0.24021951     0.18500
H948        H  0.84997154  0.31904261  0.34875453     0.18500
C949        C  0.79531944  0.22781812  0.03448639    -0.07300
C950        C  0.80386877  0.25249253  0.04656284    -0.18500
C951        C  0.80907909  0.25758105  0.07778792     0.09900
C952        C  0.80526288  0.23743097  0.09789510    -0.07300
C953        C  0.79875543  0.21317161  0.08547061    -0.18500
C954        C  0.79475386  0.20849965  0.05373556     0.09900
S955        S  0.81786366  0.28944105  0.09092836    -0.33500
S956        S  0.78811958  0.17745637  0.03940412    -0.33500
H957        H  0.80372121  0.18750376  0.01308020     0.27900
H958        H  0.79876015  0.27974273  0.11393784     0.27900
H959        H  0.80510874  0.26759471  0.03179917     0.18500
H960        H  0.79671791  0.19781249  0.10055772     0.18500
C961        C  0.76711215  0.20914291  0.28560298    -0.07300
C962        C  0.74983803  0.21376016  0.30279636    -0.18500
C963        C  0.74593387  0.20841770  0.33418609     0.09900
C964        C  0.75865382  0.19707622  0.34897694    -0.07300
C965        C  0.77467661  0.19089789  0.33179970    -0.18500
C966        C  0.77919497  0.19690490  0.30037655     0.09900
S967        S  0.72482675  0.21712314  0.35400924    -0.33500
S968        S  0.80154703  0.18968654  0.28127597    -0.33500
H969        H  0.81741667  0.21519339  0.27091293     0.27900
H970        H  0.73743539  0.22332630  0.38252017     0.27900
H971        H  0.74000400  0.22273612  0.29204227     0.18500
H972        H  0.78468957  0.18246450  0.34316282     0.18500
C973        C  0.87457196  0.05377505  0.22405706    -0.07300
C974        C  0.85026778  0.03912384  0.21038381    -0.18500
C975        C  0.83305777  0.01373704  0.21926699     0.09900
C976        C  0.83999668  0.00188568  0.24260806    -0.07300
C977        C  0.86517489  0.01577196  0.25474237    -0.18500
C978        C  0.88234078  0.04169862  0.24611618     0.09900
S979        S  0.80223394  0.99815914  0.20023067    -0.33500
S980        S  0.91265141  0.05891613  0.26606808    -0.33500
H981        H  0.91189757  0.08192090  0.26978318     0.27900
H982        H  0.79941388  0.97356171  0.20175250     0.27900
H983        H  0.84415271  0.04791240  0.19308887     0.18500
H984        H  0.87078243  0.00715814  0.27284678     0.18500
C985        C  0.88749850  0.19913954  0.20636279    -0.07300
C986        C  0.89138025  0.21903915  0.22671761    -0.18500
C987        C  0.87708803  0.23177702  0.22391070     0.09900
C988        C  0.85844208  0.22429165  0.20029615    -0.07300
C989        C  0.85586668  0.20550790  0.17903671    -0.18500
C990        C  0.87047400  0.19337551  0.18140590     0.09900
S991        S  0.88251304  0.25609221  0.25219350    -0.33500
S992        S  0.86664884  0.17083131  0.15153211    -0.33500
H993        H  0.89220524  0.17590254  0.15305933     0.27900
H994        H  0.85697202  0.25093623  0.25347301     0.27900
H995        H  0.90444741  0.22361380  0.24591843     0.18500
H996        H  0.84233359  0.20026477  0.16019308     0.18500
C997        C  0.88597356  0.11195459  0.36997473    -0.07300
C998        C  0.89785747  0.13884645  0.36459990    -0.18500
C999        C  0.90240335  0.14902860  0.33467960     0.09900
C1000       C  0.89517267  0.13193957  0.30952839    -0.07300
C1001       C  0.88369656  0.10522087  0.31492749    -0.18500
C1002       C  0.87867842  0.09503799  0.34447562     0.09900
S1003       S  0.91625387  0.18348286  0.32909508    -0.33500
S1004       S  0.86180364  0.06024125  0.34734029    -0.33500
H1005       H  0.84325524  0.05966163  0.36758726     0.27900
H1006       H  0.91864942  0.19033746  0.36036381     0.27900
H1007       H  0.90349245  0.15197988  0.38394431     0.18500
H1008       H  0.87822676  0.09185312  0.29577248     0.18500
C1009       C  0.87569216  0.11467709  0.12239376    -0.07300
C1010       C  0.89209223  0.13174898  0.10000345    -0.18500
C1011       C  0.88565178  0.12768481  0.06897460     0.09900
C1012       C  0.86201424  0.10571259  0.06027738    -0.07300
C1013       C  0.84526007  0.08900215  0.08306833    -0.18500
C1014       C  0.85180857  0.09327613  0.11408451     0.09900
S1015       S  0.90885547  0.14994958  0.04140435    -0.33500
S1016       S  0.82986344  0.06954703  0.14124816    -0.33500
H1017       H  0.83725974  0.08575507  0.16706090     0.27900
H1018       H  0.93042162  0.16059102  0.06093458     0.27900
H1019       H  0.91047022  0.14787060  0.10694852     0.18500
H1020       H  0.82720391  0.07205971  0.07662540     0.18500
C1021       C  0.02147666  0.21671085  0.10404404    -0.07300
C1022       C  0.99718860  0.21392867  0.09819526    -0.18500
C1023       C  0.97784373  0.20407265  0.12087478     0.09900
C1024       C  0.98282748  0.19638087  0.14949524    -0.07300
C1025       C  0.00782926  0.20175071  0.15626959    -0.18500
C1026       C  0.02722008  0.21202625  0.13397513     0.09900
S1027       S  0.94721396  0.20124010  0.11195743    -0.33500
S1028       S  0.05845738  0.21707776  0.14445967    -0.33500
H1029       H  0.07223937  0.23671870  0.12266895     0.27900
H1030       H  0.93964360  0.20106891  0.14264318     0.27900
H1031       H  0.99271193  0.21775048  0.07533574     0.18500
H1032       H  0.01186171  0.19630653  0.17847560     0.18500
C1033       C  0.82751272  0.95223874  0.02670811    -0.07300
C1034       C  0.82062681  0.96816631  0.04300850    -0.18500
C1035       C  0.83089964  0.99418448  0.03549984     0.09900
C1036       C  0.84765426  0.00462689  0.01002787    -0.07300
C1037       C  0.85561523  0.98875929  0.49534060    -0.18500
C1038       C  0.84600155  0.96264654  0.50351417     0.09900
S1039       S  0.82137080  0.01296919  0.05885173    -0.33500
S1040       S  0.85650071  0.94437214  0.48066440    -0.33500
H1041       H  0.83405038  0.92014848  0.48343813     0.27900
H1042       H  0.84454341  0.03651737  0.05444293     0.27900
H1043       H  0.80649932  0.96006650  0.06140306     0.18500
H1044       H  0.86796581  0.99647633  0.47526908     0.18500
C1045       C  0.77662704  0.88893294  0.37758041    -0.07300
C1046       C  0.75552060  0.86448716  0.38518484    -0.18500
C1047       C  0.75086931  0.85557449  0.41567705     0.09900
C1048       C  0.76665212  0.87200302  0.43935482    -0.07300
C1049       C  0.78763891  0.89620220  0.43174790    -0.18500
C1050       C  0.79356688  0.90430459  0.40138311     0.09900
S1051       S  0.72380574  0.82390393  0.42319625    -0.33500
S1052       S  0.82387584  0.93377753  0.39514644    -0.33500
H1053       H  0.83114373  0.92363583  0.37032574     0.27900
H1054       H  0.73923648  0.81451770  0.43543158     0.27900
H1055       H  0.74244763  0.85228474  0.36738388     0.18500
H1056       H  0.80023537  0.90864193  0.44969880     0.18500
C1057       C  0.76516464  0.89563691  0.12674501    -0.07300
C1058       C  0.74200769  0.87860810  0.14198746    -0.18500
C1059       C  0.73795644  0.88286816  0.17271555     0.09900
C1060       C  0.75771334  0.90424990  0.18855628    -0.07300
C1061       C  0.78041415  0.92143647  0.17293898    -0.18500
C1062       C  0.78407376  0.91791366  0.14212172     0.09900
S1063       S  0.70748073  0.86048635  0.19034381    -0.33500
S1064       S  0.81305402  0.94225060  0.12300758    -0.33500
H1065       H  0.82070361  0.96144525  0.14581054     0.27900
H1066       H  0.70674028  0.87869907  0.21021318     0.27900
H1067       H  0.72731767  0.86159583  0.13018483     0.18500
H1068       H  0.79600316  0.93713091  0.18534702     0.18500
C1069       C  0.48743500  0.82773895  0.06796540    -0.07300
C1070       C  0.47341407  0.80157823  0.07711040    -0.18500
C1071       C  0.48138943  0.78387725  0.06858823     0.09900
C1072       C  0.50457218  0.79271632  0.05169930    -0.07300
C1073       C  0.51703755  0.81817935  0.04034947    -0.18500
C1074       C  0.50861351  0.83546078  0.04769058     0.09900
S1075       S  0.46216113  0.75097408  0.08160196    -0.33500
S1076       S  0.52649464  0.86733609  0.03091428    -0.33500
H1077       H  0.50519931  0.87095738  0.02914268     0.27900
H1078       H  0.46134621  0.74032832  0.05249582     0.27900
H1079       H  0.45692603  0.79515054  0.09228741     0.18500
H1080       H  0.53413570  0.82502593  0.02609050     0.18500
C1081       C  0.63636930  0.77938793  0.04507152    -0.07300
C1082       C  0.64718422  0.80067035  0.02515142    -0.18500
C1083       C  0.67359602  0.81467230  0.01929608     0.09900
C1084       C  0.69034805  0.80800057  0.03451299    -0.07300
C1085       C  0.67940168  0.78566623  0.05315892    -0.18500
C1086       C  0.65257869  0.77135665  0.05870279     0.09900
S1087       S  0.68361094  0.84012100  0.49046704    -0.33500
S1088       S  0.64053751  0.74424637  0.08473163    -0.33500
H1089       H  0.62098485  0.74769473  0.09780306     0.27900
H1090       H  0.70273216  0.83562837  0.47822058     0.27900
H1091       H  0.63481154  0.80660340  0.01403848     0.18500
H1092       H  0.69186818  0.78014177  0.06477597     0.18500
C1093       C  0.55853497  0.76455848  0.14616619    -0.07300
C1094       C  0.57582393  0.76503648  0.16815354    -0.18500
C1095       C  0.57310132  0.76931906  0.19938655     0.09900
C1096       C  0.55208297  0.77235396  0.20897288    -0.07300
C1097       C  0.53445942  0.77082939  0.18667649    -0.18500
C1098       C  0.53735028  0.76688716  0.15582921     0.09900
S1099       S  0.59777137  0.77201930  0.22512750    -0.33500
S1100       S  0.51278863  0.76447802  0.13005944    -0.33500
H1101       H  0.51280266  0.74543245  0.11101533     0.27900
H1102       H  0.60333266  0.79644095  0.23612448     0.27900
H1103       H  0.59216493  0.76326172  0.16078546     0.18500
H1104       H  0.51796716  0.77264894  0.19316811     0.18500
C1105       C  0.57401120  0.81090180  0.39781294    -0.07300
C1106       C  0.58072765  0.79227278  0.40598892    -0.18500
C1107       C  0.58014983  0.78505754  0.43655609     0.09900
C1108       C  0.57105170  0.79530668  0.45920126    -0.07300
C1109       C  0.56695174  0.81575187  0.45182248    -0.18500
C1110       C  0.56978399  0.82462976  0.42150741     0.09900
S1111       S  0.59030220  0.76203326  0.44504997    -0.33500
S1112       S  0.56929741  0.85414182  0.41497953    -0.33500
H1113       H  0.58717027  0.86254016  0.39053707     0.27900
H1114       H  0.59721746  0.76940644  0.47580077     0.27900
H1115       H  0.58558267  0.78249711  0.38847435     0.18500
H1116       H  0.56133476  0.82464905  0.46967401     0.18500
C1117       C  0.52256536  0.64479401  0.43716439    -0.07300
C1118       C  0.51903861  0.63787644  0.46840505    -0.18500
C1119       C  0.52858038  0.65681707  0.49153665     0.09900
C1120       C  0.54078999  0.68323693  0.48303507    -0.07300
C1121       C  0.54651177  0.68993298  0.45198113    -0.18500
C1122       C  0.53846278  0.67111757  0.42911839     0.09900
S1123       S  0.51930508  0.64729840  0.02969289    -0.33500
S1124       S  0.54643674  0.68236253  0.39000896    -0.33500
H1125       H  0.55564372  0.66544997  0.38286861     0.27900
H1126       H  0.50659594  0.62042662  0.02453889     0.27900
H1127       H  0.50724936  0.61768391  0.47459964     0.18500
H1128       H  0.55608389  0.70999169  0.44522557     0.18500
C1129       C  0.48438385  0.66603064  0.34042233    -0.07300
C1130       C  0.49300001  0.68552692  0.36287281    -0.18500
C1131       C  0.50257381  0.71143890  0.35484175     0.09900
C1132       C  0.50318394  0.71816875  0.32362225    -0.07300
C1133       C  0.49288143  0.69848272  0.30131979    -0.18500
C1134       C  0.48366535  0.67246193  0.30938321     0.09900
S1135       S  0.51426985  0.73505320  0.38543635    -0.33500
S1136       S  0.47093062  0.64763424  0.28014446    -0.33500
H1137       H  0.47367194  0.66393218  0.25533579     0.27900
H1138       H  0.50882205  0.75275748  0.37080969     0.27900
H1139       H  0.49337964  0.68070891  0.38682638     0.18500
H1140       H  0.49328440  0.70370490  0.27739871     0.18500
C1141       C  0.54481848  0.52162916  0.37895320    -0.07300
C1142       C  0.51962921  0.50761464  0.36745606    -0.18500
C1143       C  0.50525063  0.51939142  0.36057236     0.09900
C1144       C  0.51577387  0.54629261  0.36608089    -0.07300
C1145       C  0.54127047  0.56051524  0.37719399    -0.18500
C1146       C  0.55577387  0.54852449  0.38380474     0.09900
S1147       S  0.47366699  0.49831490  0.34479210    -0.33500
S1148       S  0.58736930  0.56828714  0.40006407    -0.33500
H1149       H  0.58428674  0.54997078  0.42250205     0.27900
H1150       H  0.47811710  0.51389663  0.31872197     0.27900
H1151       H  0.51097046  0.48701444  0.36325974     0.18500
H1152       H  0.54978287  0.58103408  0.38173297     0.18500
C1153       C  0.64729246  0.52929546  0.32202614    -0.07300
C1154       C  0.63947193  0.52907132  0.29170002    -0.18500
C1155       C  0.65748082  0.53873203  0.26786604     0.09900
C1156       C  0.68372331  0.54804151  0.27453231    -0.07300
C1157       C  0.69180257  0.55082303  0.30519173    -0.18500
C1158       C  0.67377515  0.54167406  0.32918215     0.09900
S1159       S  0.64534737  0.53456689  0.22919977    -0.33500
S1160       S  0.68455347  0.54245863  0.36809610    -0.33500
H1161       H  0.71120609  0.55667395  0.36194953     0.27900
H1162       H  0.66286279  0.56026413  0.22059129     0.27900
H1163       H  0.61907449  0.51951105  0.28630802     0.18500
H1164       H  0.71200572  0.55804397  0.31004956     0.18500
C1165       C  0.81099392  0.79451861  0.14780549    -0.07300
C1166       C  0.79297723  0.80193303  0.15627846    -0.18500
C1167       C  0.78221523  0.81074428  0.13429181     0.09900
C1168       C  0.78877047  0.81115633  0.10304340    -0.07300
C1169       C  0.80435288  0.80096433  0.09420808    -0.18500
C1170       C  0.81603938  0.79320103  0.11627073     0.09900
S1171       S  0.76188805  0.82307687  0.14764656    -0.33500
S1172       S  0.83834200  0.78306199  0.10379229    -0.33500
H1173       H  0.83788808  0.78779777  0.07218084     0.27900
H1174       H  0.74867971  0.81951379  0.11975999     0.27900
H1175       H  0.78896831  0.80304895  0.18037669     0.18500
H1176       H  0.80938180  0.80150035  0.07016460     0.18500
C1177       C  0.80807507  0.69790200  0.21291766    -0.07300
C1178       C  0.81865961  0.68648842  0.19408378    -0.18500
C1179       C  0.80530332  0.65994819  0.18775204     0.09900
C1180       C  0.78121352  0.64358541  0.20219992    -0.07300
C1181       C  0.77019972  0.65506380  0.22038834    -0.18500
C1182       C  0.78336180  0.68192463  0.22594018     0.09900
S1183       S  0.81980489  0.64851369  0.16005979    -0.33500
S1184       S  0.76858301  0.69428814  0.25180320    -0.33500
H1185       H  0.79158496  0.71150302  0.26705940     0.27900
H1186       H  0.79625876  0.63023158  0.14663474     0.27900
H1187       H  0.83755215  0.69846093  0.18388665     0.18500
H1188       H  0.75179354  0.64291167  0.23161440     0.18500
C1189       C  0.84223399  0.84967776  0.24926902    -0.07300
C1190       C  0.83880400  0.85329793  0.28051484    -0.18500
C1191       C  0.83013228  0.87029540  0.28968101     0.09900
C1192       C  0.82415333  0.88347143  0.26715694    -0.07300
C1193       C  0.82813585  0.88039256  0.23611883    -0.18500
C1194       C  0.83736274  0.86399448  0.22686719     0.09900
S1195       S  0.82489100  0.87362914  0.32996648    -0.33500
S1196       S  0.84094122  0.86036177  0.18612411    -0.33500
H1197       H  0.82894842  0.87393521  0.17544075     0.27900
H1198       H  0.83522861  0.85872062  0.34133737     0.27900
H1199       H  0.84240034  0.84236398  0.29766488     0.18500
H1200       H  0.82324876  0.89039477  0.21902738     0.18500
C1201       C  0.84457447  0.85187409  0.50216288    -0.07300
C1202       C  0.86012717  0.84954602  0.02272586    -0.18500
C1203       C  0.87741690  0.84161639  0.01328497     0.09900
C1204       C  0.88013880  0.83646209  0.48314663    -0.07300
C1205       C  0.86714520  0.84307632  0.46137980    -0.18500
C1206       C  0.84964083  0.85101484  0.47051288     0.09900
S1207       S  0.89455428  0.83504065  0.04262238    -0.33500
S1208       S  0.83428640  0.85955380  0.44085030    -0.33500
H1209       H  0.83169695  0.87784448  0.45857911     0.27900
H1210       H  0.91607214  0.84074186  0.02415410     0.27900
H1211       H  0.85758143  0.85120821  0.04715513     0.18500
H1212       H  0.86992349  0.84111762  0.43711851     0.18500
C1213       C  0.90310144  0.77503736  0.06880720    -0.07300
C1214       C  0.88015226  0.75598935  0.08255354    -0.18500
C1215       C  0.87626618  0.75590827  0.11446814     0.09900
C1216       C  0.89530550  0.77600731  0.13264647    -0.07300
C1217       C  0.91864452  0.79415350  0.11908872    -0.18500
C1218       C  0.92278906  0.79367574  0.08762850     0.09900
S1219       S  0.84612876  0.73148721  0.13106836    -0.33500
S1220       S  0.95302099  0.81848503  0.07280021    -0.33500
H1221       H  0.94195569  0.82382388  0.04746532     0.27900
H1222       H  0.83752000  0.71510874  0.10524522     0.27900
H1223       H  0.86510223  0.74150699  0.06817843     0.18500
H1224       H  0.93340361  0.80952349  0.13297248     0.18500
C1225       C  0.86942004  0.76777834  0.38218681    -0.07300
C1226       C  0.87524825  0.75245120  0.36319503    -0.18500
C1227       C  0.86909888  0.74971989  0.33190288     0.09900
C1228       C  0.85730991  0.76301355  0.31921133    -0.07300
C1229       C  0.84955753  0.77652140  0.33880040    -0.18500
C1230       C  0.85548245  0.77901285  0.37013545     0.09900
S1231       S  0.87732485  0.72956820  0.30925417    -0.33500
S1232       S  0.84596232  0.79787559  0.39327007    -0.33500
H1233       H  0.84512927  0.78588067  0.42139854     0.27900
H1234       H  0.85673618  0.72150960  0.28848583     0.27900
H1235       H  0.88585696  0.74369051  0.37242398     0.18500
H1236       H  0.84020415  0.78649537  0.32936200     0.18500
C1237       C  0.71560630  0.51465596  0.43878851    -0.07300
C1238       C  0.70222159  0.48979843  0.42568158    -0.18500
C1239       C  0.67574094  0.47817146  0.41812616     0.09900
C1240       C  0.66225051  0.49159596  0.42406567    -0.07300
C1241       C  0.67533018  0.51546511  0.43940617    -0.18500
C1242       C  0.70148782  0.52700746  0.44670064     0.09900
S1243       S  0.65944237  0.44620826  0.40133979    -0.33500
S1244       S  0.71563688  0.55765387  0.46640813    -0.33500
H1245       H  0.72931606  0.55115727  0.48730782     0.27900
H1246       H  0.68005759  0.44140503  0.40388299     0.27900
H1247       H  0.71274296  0.47991212  0.42042626     0.18500
H1248       H  0.66543651  0.52602477  0.44455393     0.18500
C1249       C  0.86058540  0.64660132  0.46193979    -0.07300
C1250       C  0.85522948  0.65719248  0.48782803    -0.18500
C1251       C  0.86915532  0.68368934  0.49406050     0.09900
C1252       C  0.88871704  0.70067362  0.47357608    -0.07300
C1253       C  0.89542261  0.69014685  0.44875657    -0.18500
C1254       C  0.88159805  0.66338119  0.44264404     0.09900
S1255       S  0.85846072  0.69582375  0.02770255    -0.33500
S1256       S  0.89097569  0.65243279  0.40898220    -0.33500
H1257       H  0.86572164  0.63627354  0.39848509     0.27900
H1258       H  0.88354698  0.71610627  0.03416805     0.27900
H1259       H  0.83997291  0.64467726  0.50353736     0.18500
H1260       H  0.91046116  0.70298835  0.43295202     0.18500
C1261       C  0.81695211  0.49253063  0.41073387    -0.07300
C1262       C  0.80455775  0.46739619  0.42339624    -0.18500
C1263       C  0.81272153  0.44958513  0.41614907     0.09900
C1264       C  0.83425525  0.45733205  0.39651326    -0.07300
C1265       C  0.84554932  0.48179911  0.38266880    -0.18500
C1266       C  0.83664275  0.49895933  0.38861925     0.09900
S1267       S  0.79613106  0.41831111  0.43456362    -0.33500
S1268       S  0.85137299  0.52886980  0.36719116    -0.33500
H1269       H  0.82893127  0.53078416  0.36640710     0.27900
H1270       H  0.80374866  0.40530596  0.41395917     0.27900
H1271       H  0.78936297  0.46204752  0.44028454     0.18500
H1272       H  0.86183662  0.48779443  0.36726284     0.18500
C1273       C  0.78511306  0.56496187  0.29654932    -0.07300
C1274       C  0.79854241  0.59060242  0.30741760    -0.18500
C1275       C  0.80744378  0.59616943  0.33771001     0.09900
C1276       C  0.80361901  0.57560616  0.35703968    -0.07300
C1277       C  0.79088380  0.55023185  0.34613143    -0.18500
C1278       C  0.78129643  0.54444434  0.31641620     0.09900
S1279       S  0.82377051  0.62973052  0.34937287    -0.33500
S1280       S  0.76386675  0.51054980  0.30556716    -0.33500
H1281       H  0.77241085  0.50108032  0.32970606     0.27900
H1282       H  0.82457100  0.62641725  0.38110576     0.27900
H1283       H  0.80143426  0.60638481  0.29252619     0.18500
H1284       H  0.78755726  0.53462409  0.36162316     0.18500
C1285       C  0.77246855  0.56109189  0.04699678    -0.07300
C1286       C  0.76521890  0.54011817  0.06711820    -0.18500
C1287       C  0.75927799  0.54140069  0.09773296     0.09900
C1288       C  0.76102004  0.56428628  0.10896078    -0.07300
C1289       C  0.76675313  0.58477776  0.08895717    -0.18500
C1290       C  0.77271331  0.58355770  0.05812776     0.09900
S1291       S  0.74925134  0.51303216  0.12125079    -0.33500
S1292       S  0.78245101  0.61205604  0.03529366    -0.33500
H1293       H  0.80512885  0.61254881  0.02605968     0.27900
H1294       H  0.73299748  0.51718600  0.14091071     0.27900
H1295       H  0.76405799  0.52240377  0.05901716     0.18500
H1296       H  0.76791434  0.60231581  0.09776814     0.18500
C1297       C  0.15889059  0.55282920  0.10082345    -0.07300
C1298       C  0.15737497  0.54614623  0.06964208    -0.18500
C1299       C  0.16839791  0.53192657  0.05857251     0.09900
C1300       C  0.18033519  0.52293703  0.07909628    -0.07300
C1301       C  0.18395354  0.53147906  0.10969769    -0.18500
C1302       C  0.17344268  0.54635388  0.12082116     0.09900
S1303       S  0.16633422  0.52558633  0.01795647    -0.33500
S1304       S  0.17788631  0.55473303  0.16103503    -0.33500
H1305       H  0.15263990  0.54963643  0.16609025     0.27900
H1306       H  0.19090140  0.52810946  0.01591139     0.27900
H1307       H  0.14716367  0.55176793  0.05373691     0.18500
H1308       H  0.19393168  0.52557860  0.12541398     0.18500
C1309       C  0.09200909  0.57377935  0.02162920    -0.07300
C1310       C  0.11377754  0.59071273  0.00441758    -0.18500
C1311       C  0.11546044  0.58753001  0.47597267     0.09900
C1312       C  0.09764218  0.56382130  0.46200588    -0.07300
C1313       C  0.07551385  0.54618576  0.47849662    -0.18500
C1314       C  0.07155736  0.55201348  0.00696358     0.09900
S1315       S  0.14395918  0.61239691  0.45700940    -0.33500
S1316       S  0.04147271  0.53055559  0.02604206    -0.33500
H1317       H  0.04173773  0.54962108  0.04530659     0.27900
H1318       H  0.13230879  0.60759937  0.42816422     0.27900
H1319       H  0.12930557  0.60766017  0.01523315     0.18500
H1320       H  0.06151324  0.52811990  0.46784920     0.18500
C1321       C  0.08965683  0.53569252  0.27403757    -0.07300
C1322       C  0.09577998  0.52170946  0.25288717    -0.18500
C1323       C  0.09958470  0.52832343  0.22158098     0.09900
C1324       C  0.09847996  0.55017512  0.21134650    -0.07300
C1325       C  0.09073032  0.56291953  0.23203362    -0.18500
C1326       C  0.08541536  0.55547257  0.26277018     0.09900
S1327       S  0.10783941  0.50958242  0.19656312    -0.33500
S1328       S  0.07302955  0.57185576  0.28603240    -0.33500
H1329       H  0.05604643  0.54963171  0.30301880     0.27900
H1330       H  0.08908644  0.50552368  0.17452180     0.27900
H1331       H  0.09859401  0.50611490  0.26090465     0.18500
H1332       H  0.08880951  0.57902563  0.22398877     0.18500
C1333       C  0.81919405  0.33658501  0.17083298    -0.07300
C1334       C  0.83656365  0.35601547  0.19052222    -0.18500
C1335       C  0.84586505  0.38207822  0.18415125     0.09900
C1336       C  0.83855141  0.38924894  0.15662594    -0.07300
C1337       C  0.81984916  0.36968253  0.13778783    -0.18500
C1338       C  0.80968994  0.34338235  0.14499790     0.09900
S1339       S  0.86663922  0.40508968  0.21249822    -0.33500
S1340       S  0.78438895  0.31968219  0.12101727    -0.33500
H1341       H  0.77344489  0.30009066  0.14343892     0.27900
H1342       H  0.85767074  0.42251743  0.20769065     0.27900
H1343       H  0.84306991  0.35080194  0.21110202     0.18500
H1344       H  0.81358881  0.37485770  0.11698826     0.18500
C1345       C  0.87495736  0.52909147  0.06666179    -0.07300
C1346       C  0.86461492  0.54502060  0.07323111    -0.18500
C1347       C  0.85668581  0.55523151  0.04954546     0.09900
C1348       C  0.85932257  0.54943146  0.01876117    -0.07300
C1349       C  0.87175601  0.53542025  0.01220337    -0.18500
C1350       C  0.87960377  0.52514380  0.03586551     0.09900
S1351       S  0.84064848  0.57287246  0.06009874    -0.33500
S1352       S  0.89307794  0.50515349  0.02525445    -0.33500
H1353       H  0.90537994  0.50713618  0.05337308     0.27900
H1354       H  0.84464937  0.58603372  0.03202771     0.27900
H1355       H  0.86082065  0.54782532  0.09690988     0.18500
H1356       H  0.86965628  0.52641685  0.48787326     0.18500
C1357       C  0.89909954  0.47545042  0.23211251    -0.07300
C1358       C  0.88137134  0.47832565  0.25068398    -0.18500
C1359       C  0.87587949  0.46882404  0.28078904     0.09900
C1360       C  0.88853143  0.45633261  0.29293080    -0.07300
C1361       C  0.90675353  0.45421234  0.27499378    -0.18500
C1362       C  0.91274820  0.46416790  0.24519660     0.09900
S1363       S  0.85189530  0.47247107  0.30178655    -0.33500
S1364       S  0.93795760  0.46172015  0.22554437    -0.33500
H1365       H  0.94898163  0.48662070  0.21262529     0.27900
H1366       H  0.84299226  0.45032169  0.32022037     0.27900
H1367       H  0.87064348  0.48688595  0.24128217     0.18500
H1368       H  0.91628241  0.44445879  0.28420332     0.18500
C1369       C  0.89206064  0.42939093  0.48088812    -0.07300
C1370       C  0.91401590  0.44536922  0.49835162    -0.18500
C1371       C  0.91174570  0.45051088  0.02890161     0.09900
C1372       C  0.88729477  0.44107368  0.04293897    -0.07300
C1373       C  0.86497211  0.42476125  0.02618517    -0.18500
C1374       C  0.86739534  0.41866210  0.49458180     0.09900
S1375       S  0.94162200  0.47187207  0.04805905    -0.33500
S1376       S  0.83783497  0.39837985  0.47410878    -0.33500
H1377       H  0.84621443  0.41095310  0.44561094     0.27900
H1378       H  0.93249616  0.48718169  0.06137370     0.27900
H1379       H  0.93296305  0.45374725  0.48782128     0.18500
H1380       H  0.84613915  0.41731246  0.03676906     0.18500
C1381       C  0.97005868  0.53141134  0.13136519    -0.07300
C1382       C  0.98499945  0.53185600  0.15629962    -0.18500
C1383       C  0.01195063  0.54491249  0.15452473     0.09900
C1384       C  0.02443934  0.55790453  0.12702483    -0.07300
C1385       C  0.00944530  0.55849801  0.10258632    -0.18500
C1386       C  0.98242413  0.54530062  0.10440896     0.09900
S1387       S  0.02906819  0.54386198  0.18806529    -0.33500
S1388       S  0.96487519  0.54601361  0.07118796    -0.33500
H1389       H  0.94270124  0.54185229  0.08715376     0.27900
H1390       H  0.05135168  0.56797107  0.18302812     0.27900
H1391       H  0.97553788  0.52132119  0.17708137     0.18500
H1392       H  0.01876958  0.56835456  0.08139646     0.18500
C1393       C  0.81560120  0.48570336  0.17433533    -0.07300
C1394       C  0.82335173  0.50258578  0.19951375    -0.18500
C1395       C  0.80778972  0.51177716  0.21129951     0.09900
C1396       C  0.78356451  0.50417466  0.19763822    -0.07300
C1397       C  0.77453949  0.48513427  0.17460338    -0.18500
C1398       C  0.79030902  0.47587859  0.16275305     0.09900
S1399       S  0.82081105  0.53416820  0.24299590    -0.33500
S1400       S  0.77835448  0.45418096  0.13049064    -0.33500
H1401       H  0.78370966  0.43601290  0.14398511     0.27900
H1402       H  0.79674250  0.52799867  0.25502170     0.27900
H1403       H  0.84238033  0.50973333  0.20924248     0.18500
H1404       H  0.75589132  0.47876410  0.16428853     0.18500
C1405       C  0.01556261  0.81187372  0.35016606    -0.07300
C1406       C  0.02366298  0.81555622  0.38080887    -0.18500
C1407       C  0.00582386  0.80616374  0.40495579     0.09900
C1408       C  0.97920316  0.79499825  0.39833298    -0.07300
C1409       C  0.97107628  0.78935856  0.36765556    -0.18500
C1410       C  0.98899779  0.79682766  0.34361231     0.09900
S1411       S  0.01853696  0.81183897  0.44346321    -0.33500
S1412       S  0.97682100  0.78865717  0.30497742    -0.33500
H1413       H  0.99784589  0.78699043  0.29342248     0.27900
H1414       H  0.00264475  0.78589737  0.45254260     0.27900
H1415       H  0.04396946  0.82715466  0.38606941     0.18500
H1416       H  0.95068673  0.78006314  0.36230443     0.18500
C1417       C  0.99808223  0.85970975  0.26122317    -0.07300
C1418       C  0.97833567  0.84465361  0.28214908    -0.18500
C1419       C  0.95240182  0.83422388  0.27429580     0.09900
C1420       C  0.94592453  0.83856352  0.24461503    -0.07300
C1421       C  0.96567956  0.85607908  0.22491489    -0.18500
C1422       C  0.99183672  0.86706393  0.23327277     0.09900
S1423       S  0.92842509  0.81469240  0.30265514    -0.33500
S1424       S  0.01708841  0.88998196  0.20836510    -0.33500
H1425       H  0.00091633  0.88835207  0.18406010     0.27900
H1426       H  0.90938831  0.81986908  0.29178954     0.27900
H1427       H  0.98318281  0.84006603  0.30435125     0.18500
H1428       H  0.96065851  0.85999032  0.20245199     0.18500
C1429       C  0.13755052  0.78748497  0.29314555    -0.07300
C1430       C  0.14527462  0.80543178  0.26881420    -0.18500
C1431       C  0.13271253  0.81942640  0.26296756     0.09900
C1432       C  0.11169448  0.81533875  0.28152384    -0.07300
C1433       C  0.10317410  0.79681392  0.30505361    -0.18500
C1434       C  0.11578792  0.78283400  0.31104676     0.09900
S1435       S  0.14385344  0.84285490  0.23205875    -0.33500
S1436       S  0.10461107  0.76120675  0.34349908    -0.33500
H1437       H  0.09878561  0.73937954  0.32546190     0.27900
H1438       H  0.16385133  0.83890551  0.22159416     0.27900
H1439       H  0.16165289  0.80895413  0.25470378     0.18500
H1440       H  0.08721494  0.79394192  0.31960072     0.18500
C1441       C  0.17418184  0.67254400  0.34233058    -0.07300
C1442       C  0.18733515  0.65963616  0.33286039    -0.18500
C1443       C  0.17843113  0.63361676  0.34134226     0.09900
C1444       C  0.15596766  0.62022922  0.35977792    -0.07300
C1445       C  0.14417229  0.63393232  0.37060152    -0.18500
C1446       C  0.15318942  0.65961170  0.36298007     0.09900
S1447       S  0.19511409  0.61809573  0.32584083    -0.33500
S1448       S  0.13620882  0.67420403  0.38036587    -0.33500
H1449       H  0.15855867  0.69822405  0.38400367     0.27900
H1450       H  0.17250571  0.59534665  0.31712681     0.27900
H1451       H  0.20349844  0.66918064  0.31710119     0.18500
H1452       H  0.12700757  0.62437468  0.38480241     0.18500
C1453       C  0.13799185  0.69361049  0.23149182    -0.07300
C1454       C  0.11653135  0.66892606  0.23644283    -0.18500
C1455       C  0.10661628  0.65078250  0.21245636     0.09900
C1456       C  0.11919202  0.65713524  0.18361115    -0.07300
C1457       C  0.13873310  0.68262757  0.17797278    -0.18500
C1458       C  0.14780694  0.70103456  0.20140849     0.09900
S1459       S  0.07905702  0.61955421  0.22041781    -0.33500
S1460       S  0.17285133  0.73337033  0.19196578    -0.33500
H1461       H  0.16674738  0.74547512  0.21566514     0.27900
H1462       H  0.06995315  0.61477098  0.19003044     0.27900
H1463       H  0.10851799  0.66323782  0.25938964     0.18500
H1464       H  0.14795514  0.68786149  0.15557289     0.18500
C1465       C  0.18105170  0.67069446  0.08994914    -0.07300
C1466       C  0.19174038  0.69039027  0.11209714    -0.18500
C1467       C  0.20868957  0.71622393  0.10379689     0.09900
C1468       C  0.21534690  0.72284642  0.07260049    -0.07300
C1469       C  0.20615789  0.70287883  0.05071463    -0.18500
C1470       C  0.18915270  0.67693613  0.05903813     0.09900
S1471       S  0.21996111  0.74010959  0.13385294    -0.33500
S1472       S  0.17752658  0.65299594  0.02900722    -0.33500
H1473       H  0.17124852  0.63166950  0.04817190     0.27900
H1474       H  0.24279687  0.75808601  0.11874103     0.27900
H1475       H  0.18583762  0.68580036  0.13593928     0.18500
H1476       H  0.21121258  0.70765877  0.02674387     0.18500
C1477       C  0.33307040  0.82779434  0.08011818    -0.07300
C1478       C  0.35213012  0.83853582  0.05704199    -0.18500
C1479       C  0.37831517  0.84797948  0.06348298     0.09900
C1480       C  0.38603997  0.84649934  0.09372670    -0.07300
C1481       C  0.36690410  0.83477386  0.11660953    -0.18500
C1482       C  0.34065712  0.82555544  0.11019279     0.09900
S1483       S  0.40099320  0.86205394  0.03213588    -0.33500
S1484       S  0.31786627  0.81117787  0.14127501    -0.33500
H1485       H  0.29716838  0.79392338  0.12265933     0.27900
H1486       H  0.41904391  0.85577142  0.04370668     0.27900
H1487       H  0.34667089  0.84037464  0.03385234     0.18500
H1488       H  0.37255070  0.83364834  0.13994652     0.18500
C1489       C  0.23529627  0.80935905  0.15252031    -0.07300
C1490       C  0.25009711  0.79993747  0.16604470    -0.18500
C1491       C  0.24608736  0.79153295  0.19653097     0.09900
C1492       C  0.22709119  0.79305953  0.21416580    -0.07300
C1493       C  0.21355505  0.80429692  0.20130705    -0.18500
C1494       C  0.21726925  0.81223753  0.17049172     0.09900
S1495       S  0.26517161  0.77820793  0.21099575    -0.33500
S1496       S  0.19750593  0.82447803  0.15521377    -0.33500
H1497       H  0.21290194  0.83717234  0.12946998     0.27900
H1498       H  0.26461937  0.78444384  0.24201518     0.27900
H1499       H  0.26397071  0.79785265  0.15221696     0.18500
H1500       H  0.19898087  0.80553708  0.21482305     0.18500
C1501       C  0.18820659  0.76669036  0.40149502    -0.07300
C1502       C  0.19311061  0.74874096  0.41620212    -0.18500
C1503       C  0.19968044  0.75105429  0.44721595     0.09900
C1504       C  0.20264744  0.77254214  0.46421597    -0.07300
C1505       C  0.19739238  0.79045178  0.44975998    -0.18500
C1506       C  0.19010040  0.78769583  0.41866276     0.09900
S1507       S  0.20385402  0.72572310  0.46369807    -0.33500
S1508       S  0.18384264  0.81168351  0.40222266    -0.33500
H1509       H  0.16475883  0.79467486  0.38164739     0.27900
H1510       H  0.19309911  0.72623174  0.49232472     0.27900
H1511       H  0.19270287  0.73311950  0.40316455     0.18500
H1512       H  0.19979069  0.80714341  0.46245423     0.18500
C1513       C  0.99747250  0.85863899  0.99003135    -0.07300
C1514       C  0.00296829  0.86430069  0.02131056    -0.18500
C1515       C  0.02820815  0.88007031  0.03169771     0.09900
C1516       C  0.04872058  0.89047206  0.01039470    -0.07300
C1517       C  0.04322864  0.88693589  0.97887461    -0.18500
C1518       C  0.01844816  0.87144175  0.47109839     0.09900
S1519       S  0.03301949  0.88449806  0.07261873    -0.33500
S1520       S  0.01312760  0.86782635  0.43023106    -0.33500
H1521       H  0.99439968  0.87542550  0.43102140     0.27900
H1522       H  0.05535195  0.90901626  0.07088923     0.27900
H1523       H  0.98771070  0.85600292  0.03776406     0.18500
H1524       H  0.05892756  0.89508535  0.96237206     0.18500
C1525       C  0.21576269  0.86217908  0.04666512    -0.07300
C1526       C  0.19564762  0.85162475  0.02516984    -0.18500
C1527       C  0.18144224  0.86367653  0.01806616     0.09900
C1528       C  0.18658865  0.88665278  0.03362250    -0.07300
C1529       C  0.20735124  0.89773839  0.05444572    -0.18500
C1530       C  0.22183817  0.88572172  0.06124902     0.09900
S1531       S  0.15560861  0.84606946  0.48906727    -0.33500
S1532       S  0.24671868  0.90065540  0.08991609    -0.33500
H1533       H  0.24411987  0.87759943  0.10177324     0.27900
H1534       H  0.16218734  0.86949831  0.47412243     0.27900
H1535       H  0.19105183  0.83375760  0.01351711     0.18500
H1536       H  0.21167631  0.91534214  0.06650358     0.18500
C1537       C  0.13766997  0.90441318  0.43123645    -0.07300
C1538       C  0.12186581  0.87926875  0.41995149    -0.18500
C1539       C  0.11529500  0.87488401  0.38892451     0.09900
C1540       C  0.12358368  0.89609732  0.36877283    -0.07300
C1541       C  0.14104954  0.92106258  0.37925341    -0.18500
C1542       C  0.14862180  0.92538989  0.41019928     0.09900
S1543       S  0.09574266  0.84179128  0.37645057    -0.33500
S1544       S  0.16995198  0.95829361  0.42190511    -0.33500
H1545       H  0.18794655  0.95263560  0.43512573     0.27900
H1546       H  0.10437471  0.84630076  0.34582547     0.27900
H1547       H  0.11406030  0.86291514  0.43559669     0.18500
H1548       H  0.14762646  0.93739415  0.36374189     0.18500
C1549       C  0.08853265  0.86408699  0.18058820    -0.07300
C1550       C  0.11249749  0.87007209  0.16770003    -0.18500
C1551       C  0.11781825  0.87596961  0.13639006     0.09900
C1552       C  0.09959412  0.87791078  0.11780645    -0.07300
C1553       C  0.07538326  0.87090866  0.13021361    -0.18500
C1554       C  0.06925337  0.86293169  0.16079011     0.09900
S1555       S  0.14879737  0.88260996  0.12203077    -0.33500
S1556       S  0.03668947  0.85218133  0.17280905    -0.33500
H1557       H  0.03244635  0.82802899  0.18314364     0.27900
H1558       H  0.13825704  0.86429609  0.09821154     0.27900
H1559       H  0.12731890  0.87032970  0.18213087     0.18500
H1560       H  0.06100914  0.87152410  0.11585019     0.18500
C1561       C  0.54250861  0.16553768  0.14084168    -0.07300
C1562       C  0.51849234  0.15577779  0.12630090    -0.18500
C1563       C  0.50161672  0.16485079  0.13348207     0.09900
C1564       C  0.50768483  0.18285723  0.15780002    -0.07300
C1565       C  0.53271244  0.19430255  0.17040592    -0.18500
C1566       C  0.55041278  0.18654128  0.16136683     0.09900
S1567       S  0.47270522  0.15233838  0.11068074    -0.33500
S1568       S  0.58203673  0.20306484  0.17826901    -0.33500
H1569       H  0.59494044  0.20681842  0.15002332     0.27900
H1570       H  0.47319350  0.17613844  0.10934836     0.27900
H1571       H  0.51264844  0.14061524  0.10922890     0.18500
H1572       H  0.53833971  0.20882673  0.18822243     0.18500
C1573       C  0.18437511  0.98415631  0.10098345    -0.07300
C1574       C  0.19891368  0.01028303  0.09223847    -0.18500
C1575       C  0.20750527  0.03010453  0.11415388     0.09900
C1576       C  0.20168677  0.02368258  0.14557506    -0.07300
C1577       C  0.18936471  0.99760807  0.15448045    -0.18500
C1578       C  0.18037087  0.97780216  0.13256240     0.09900
S1579       S  0.22499568  0.06303843  0.10042985    -0.33500
S1580       S  0.16265816  0.94451012  0.14514085    -0.33500
H1581       H  0.16382832  0.94937276  0.17692495     0.27900
H1582       H  0.23867132  0.07376885  0.12778022     0.27900
H1583       H  0.20198068  0.01536698  0.06806957     0.18500
H1584       H  0.18508762  0.99271629  0.17857976     0.18500
C1585       C  0.35554053  0.13882597  0.20353715    -0.07300
C1586       C  0.34106885  0.14322315  0.18155355    -0.18500
C1587       C  0.31418809  0.12973549  0.18230946     0.09900
C1588       C  0.30111492  0.11178943  0.20607477    -0.07300
C1589       C  0.31531187  0.10579227  0.22676976    -0.18500
C1590       C  0.34245554  0.11920905  0.22582610     0.09900
S1591       S  0.29761963  0.13658153  0.15252647    -0.33500
S1592       S  0.35911003  0.11200079  0.25511434    -0.33500
H1593       H  0.37867141  0.13781809  0.25973077     0.27900
H1594       H  0.27508793  0.11213440  0.15339523     0.27900
H1595       H  0.35084690  0.15768881  0.16379583     0.18500
H1596       H  0.30533088  0.09200428  0.24510944     0.18500
C1597       C  0.14888373  0.00764964  0.24801914    -0.07300
C1598       C  0.13605815  0.98873782  0.22527722    -0.18500
C1599       C  0.11987545  0.96270728  0.23298655     0.09900
C1600       C  0.11630095  0.95516388  0.26421665    -0.07300
C1601       C  0.12737489  0.97429912  0.28707380    -0.18500
C1602       C  0.14375806  0.00048365  0.27927445     0.09900
S1603       S  0.10496001  0.93994228  0.20186099    -0.33500
S1604       S  0.15816935  0.02451993  0.30920203    -0.33500
H1605       H  0.14642260  0.00761900  0.33419774     0.27900
H1606       H  0.08295439  0.92222443  0.21859294     0.27900
H1607       H  0.13968833  0.99403276  0.20118103     0.18500
H1608       H  0.12443414  0.96850295  0.31100379     0.18500
C1609       C  0.44739669  0.83403132  0.35755792    -0.07300
C1610       C  0.46700739  0.83626862  0.37704395    -0.18500
C1611       C  0.48224675  0.82549440  0.36925449     0.09900
C1612       C  0.47890362  0.81315877  0.34062697    -0.07300
C1613       C  0.45789957  0.80892607  0.32218176    -0.18500
C1614       C  0.44208188  0.81922558  0.33033499     0.09900
S1615       S  0.50598090  0.82844785  0.39663636    -0.33500
S1616       S  0.41702414  0.81456329  0.30380760    -0.33500
H1617       H  0.41795667  0.83817349  0.30934649     0.27900
H1618       H  0.50743701  0.80693673  0.38609956     0.27900
H1619       H  0.47097270  0.84714201  0.39823147     0.18500
H1620       H  0.45510694  0.79944712  0.30011716     0.18500
C1621       C  0.43433829  0.89881165  0.27128992    -0.07300
C1622       C  0.44637752  0.88450301  0.26385572    -0.18500
C1623       C  0.45039066  0.87978684  0.23345814     0.09900
C1624       C  0.44218302  0.88974851  0.20910913    -0.07300
C1625       C  0.43031643  0.90429610  0.21647530    -0.18500
C1626       C  0.42644991  0.90904030  0.24709006     0.09900
S1627       S  0.46636034  0.86123132  0.22704233    -0.33500
S1628       S  0.41225483  0.92901338  0.25348082    -0.33500
H1629       H  0.42946842  0.94359360  0.27710073     0.27900
H1630       H  0.47278396  0.85963234  0.25773079     0.27900
H1631       H  0.45241580  0.87648294  0.28214910     0.18500
H1632       H  0.42419192  0.91231846  0.19821932     0.18500
C1633       C  0.47491924  0.91109985  0.02071880    -0.07300
C1634       C  0.46758562  0.88720871  0.00694518    -0.18500
C1635       C  0.45425305  0.87706685  0.47610177     0.09900
C1636       C  0.45204765  0.89631400  0.45985432    -0.07300
C1637       C  0.45912787  0.92004728  0.47432415    -0.18500
C1638       C  0.46765506  0.92455945  0.50490944     0.09900
S1639       S  0.44741321  0.84678722  0.45855700    -0.33500
S1640       S  0.48280384  0.96185275  0.01944781    -0.33500
H1641       H  0.50163385  0.96267877  0.03938666     0.27900
H1642       H  0.45794533  0.83862860  0.48188841     0.27900
H1643       H  0.46833315  0.87231540  0.02023992     0.18500
H1644       H  0.45756927  0.93494185  0.46194707     0.18500
C1645       C  0.30933443  0.85742192  0.48099322    -0.07300
C1646       C  0.33548212  0.87176339  0.48912799    -0.18500
C1647       C  0.35489086  0.88138951  0.46665212     0.09900
C1648       C  0.34812080  0.87680518  0.43521536    -0.07300
C1649       C  0.32199641  0.86503252  0.42702938    -0.18500
C1650       C  0.30254889  0.85525414  0.44956530     0.09900
S1651       S  0.38796123  0.89778868  0.47956970    -0.33500
S1652       S  0.26946246  0.83893236  0.43678396    -0.33500
H1653       H  0.25924510  0.84339038  0.46376702     0.27900
H1654       H  0.39860468  0.91221834  0.45249609     0.27900
H1655       H  0.34194310  0.87933602  0.01359191     0.18500
H1656       H  0.31659731  0.86151785  0.40299190     0.18500
C1657       C  0.27783987  0.79448984  0.31929587    -0.07300
C1658       C  0.29088243  0.78245490  0.33142738    -0.18500
C1659       C  0.31744637  0.79692497  0.33809957     0.09900
C1660       C  0.33119495  0.82396395  0.33256037    -0.07300
C1661       C  0.31822622  0.83540616  0.31884545    -0.18500
C1662       C  0.29208552  0.82115510  0.31210808     0.09900
S1663       S  0.33268848  0.77986232  0.35316888    -0.33500
S1664       S  0.27819402  0.83833629  0.29383143    -0.33500
H1665       H  0.26753871  0.82028594  0.26989003     0.27900
H1666       H  0.35676950  0.79604754  0.33916249     0.27900
H1667       H  0.28028154  0.76186483  0.33622433     0.18500
H1668       H  0.32830271  0.85603896  0.31424179     0.18500
C1669       C  0.61323717  0.16456066  0.40364116    -0.07300
C1670       C  0.62155422  0.17547948  0.43278306    -0.18500
C1671       C  0.64693945  0.18412239  0.44248130     0.09900
C1672       C  0.66470464  0.18221762  0.42231417    -0.07300
C1673       C  0.65655574  0.17294892  0.39237853    -0.18500
C1674       C  0.63129007  0.16430691  0.38291566     0.09900
S1675       S  0.65432580  0.19502565  0.48170881    -0.33500
S1676       S  0.62290879  0.15251204  0.34415064    -0.33500
H1677       H  0.60851747  0.16487213  0.33930783     0.27900
H1678       H  0.66141497  0.17662465  0.48954630     0.27900
H1679       H  0.60771230  0.17550193  0.44888777     0.18500
H1680       H  0.66976051  0.17169586  0.37632439     0.18500
C1681       C  0.47131988  0.02796096  0.37476215    -0.07300
C1682       C  0.44968140  0.01228609  0.39313195    -0.18500
C1683       C  0.43621030  0.98519716  0.38996453     0.09900
C1684       C  0.44474059  0.97340087  0.36828536    -0.07300
C1685       C  0.46572775  0.98930251  0.34910664    -0.18500
C1686       C  0.47872052  0.01626595  0.35175473     0.09900
S1687       S  0.41014244  0.96662356  0.41634970    -0.33500
S1688       S  0.50455437  0.03478979  0.32495355    -0.33500
H1689       H  0.49994711  0.05565123  0.32332062     0.27900
H1690       H  0.39180457  0.95500315  0.39280435     0.27900
H1691       H  0.44398372  0.02108231  0.41100526     0.18500
H1692       H  0.47213129  0.98062351  0.33186348     0.18500
C1693       C  0.52383917  0.09484969  0.48352752    -0.07300
C1694       C  0.52571218  0.07474583  0.49758461    -0.18500
C1695       C  0.53320822  0.07785347  0.02971763     0.09900
C1696       C  0.53983844  0.10093783  0.04592022    -0.07300
C1697       C  0.53851437  0.12096705  0.03078803    -0.18500
C1698       C  0.52697330  0.11599303  0.50117330     0.09900
S1699       S  0.53410680  0.05083166  0.04681248    -0.33500
S1700       S  0.52727804  0.14383434  0.48489909    -0.33500
H1701       H  0.54180289  0.14518186  0.45874153     0.27900
H1702       H  0.55785038  0.06594820  0.06173801     0.27900
H1703       H  0.52342557  0.05855676  0.48389271     0.18500
H1704       H  0.54336180  0.13871002  0.04291174     0.18500
C1705       C  0.55988081  0.11076403  0.29703474    -0.07300
C1706       C  0.55569328  0.12596793  0.27598958    -0.18500
C1707       C  0.55947934  0.12480465  0.24476699     0.09900
C1708       C  0.56757898  0.10782891  0.23364668    -0.07300
C1709       C  0.57244352  0.09291209  0.25466878    -0.18500
C1710       C  0.56873814  0.09425640  0.28636006     0.09900
S1711       S  0.55421047  0.14619941  0.22072860    -0.33500
S1712       S  0.57639719  0.07524979  0.31173689    -0.33500
H1713       H  0.58546336  0.09327494  0.33593304     0.27900
H1714       H  0.57624438  0.15344549  0.20246753     0.27900
H1715       H  0.54913209  0.13892140  0.28391247     0.18500
H1716       H  0.57899733  0.08007177  0.24636967     0.18500
C1717       C  0.47706260  0.12834718  0.31690933    -0.07300
C1718       C  0.46519918  0.14266270  0.32456937    -0.18500
C1719       C  0.45546437  0.15173925  0.30176823     0.09900
C1720       C  0.45734498  0.14608199  0.27062586    -0.07300
C1721       C  0.46680505  0.12948058  0.26328138    -0.18500
C1722       C  0.47689434  0.12066418  0.28628609     0.09900
S1723       S  0.44242338  0.17182342  0.31371968    -0.33500
S1724       S  0.49004145  0.10020413  0.27662689    -0.33500
H1725       H  0.48449809  0.09827827  0.24501030     0.27900
H1726       H  0.42596143  0.16619260  0.28833353     0.27900
H1727       H  0.46505473  0.14826632  0.34826989     0.18500
H1728       H  0.46815971  0.12515153  0.23938776     0.18500
C1729       C  0.48612340  0.21060879  0.43785803    -0.07300
C1730       C  0.50101177  0.21592748  0.41116829    -0.18500
C1731       C  0.51104425  0.20015538  0.40214020     0.09900
C1732       C  0.50653392  0.17852233  0.42057448    -0.07300
C1733       C  0.49252436  0.17412710  0.44809975    -0.18500
C1734       C  0.48221079  0.18970374  0.45670770     0.09900
S1735       S  0.52778934  0.20802394  0.36574853    -0.33500
S1736       S  0.46355585  0.18155169  0.49166142    -0.33500
H1737       H  0.45093598  0.18686478  0.98479687     0.27900
H1738       H  0.51156566  0.18343078  0.35309865     0.27900
H1739       H  0.50392103  0.23186339  0.39652973     0.18500
H1740       H  0.48859675  0.15776489  0.46250987     0.18500
C1741       C  0.51393758  0.33303200  0.41337795    -0.07300
C1742       C  0.50863774  0.34118338  0.38554492    -0.18500
C1743       C  0.52493107  0.36601735  0.37407098     0.09900
C1744       C  0.54703032  0.38359768  0.39090247    -0.07300
C1745       C  0.55377718  0.37473382  0.41716685    -0.18500
C1746       C  0.53729710  0.34971833  0.42877208     0.09900
S1747       S  0.51577052  0.37466775  0.33852395    -0.33500
S1748       S  0.54544662  0.34152501  0.46520542    -0.33500
H1749       H  0.52141285  0.33431045  0.47868147     0.27900
H1750       H  0.54131536  0.39172949  0.32933594     0.27900
H1751       H  0.49095804  0.32847330  0.37333435     0.18500
H1752       H  0.57053838  0.38811268  0.43037730     0.18500
C1753       C  0.42832003  0.23878320  0.35509485    -0.07300
C1754       C  0.45194671  0.25422197  0.34011238    -0.18500
C1755       C  0.45599863  0.24930612  0.30989267     0.09900
C1756       C  0.43596756  0.22808496  0.29386746    -0.07300
C1757       C  0.41201071  0.21299421  0.30865766    -0.18500
C1758       C  0.40795240  0.21816639  0.33899347     0.09900
S1759       S  0.48718423  0.27127921  0.29347150    -0.33500
S1760       S  0.37636820  0.19814728  0.35558039    -0.33500
H1761       H  0.37681296  0.21775560  0.37398080     0.27900
H1762       H  0.47721461  0.27295207  0.26497417     0.27900
H1763       H  0.46770742  0.27010323  0.35231658     0.18500
H1764       H  0.39643163  0.19679076  0.29669341     0.18500
C1765       C  0.43911616  0.21931331  0.04583462    -0.07300
C1766       C  0.41436974  0.19921190  0.05430176    -0.18500
C1767       C  0.40882972  0.18984117  0.08466731     0.09900
C1768       C  0.42854381  0.20092943  0.10694998    -0.07300
C1769       C  0.45318740  0.22055489  0.09838199    -0.18500
C1770       C  0.45885647  0.22949812  0.06827288     0.09900
S1771       S  0.37602447  0.16535240  0.09354550    -0.33500
S1772       S  0.49202058  0.25333803  0.06022015    -0.33500
H1773       H  0.49287683  0.24197507  0.03220814     0.27900
H1774       H  0.38067098  0.15688735  0.12156484     0.27900
H1775       H  0.39906962  0.19125323  0.03739877     0.18500
H1776       H  0.46838910  0.22889632  0.11545755     0.18500
C1777       C  0.17661417  0.05608198  0.47811103    -0.07300
C1778       C  0.19251218  0.04504374  0.47620246    -0.18500
C1779       C  0.18441641  0.01994749  0.48583294     0.09900
C1780       C  0.15911774  0.00420152  0.49745275    -0.07300
C1781       C  0.14165348  0.01586112  0.99843093    -0.18500
C1782       C  0.15099857  0.04026446  0.48909977     0.09900
S1783       S  0.20850075  0.01031533  0.48442948    -0.33500
S1784       S  0.12843032  0.05360244  0.99277136    -0.33500
H1785       H  0.14459756  0.07459194  0.50614977     0.27900
H1786       H  0.20564633  0.00356047  0.51566910     0.27900
H1787       H  0.21215945  0.05633275  0.46780220     0.18500
H1788       H  0.12222789  0.00442173  0.00744660     0.18500
C1789       C  0.30460050  0.20500435  0.46659510    -0.07300
C1790       C  0.31991904  0.20608649  0.49152934    -0.18500
C1791       C  0.34678755  0.21849912  0.48906270     0.09900
C1792       C  0.35882386  0.22960966  0.46070498    -0.07300
C1793       C  0.34368294  0.23033245  0.43648313    -0.18500
C1794       C  0.31667998  0.21787546  0.43899173     0.09900
S1795       S  0.36695341  0.21822557  0.02085446    -0.33500
S1796       S  0.29875002  0.21727872  0.40544884    -0.33500
H1797       H  0.27788720  0.19202779  0.40964316     0.27900
H1798       H  0.38888167  0.24242395  0.01451151     0.27900
H1799       H  0.31316989  0.19507080  0.01089087     0.18500
H1800       H  0.35273582  0.23900695  0.41470329     0.18500
C1801       C  0.11995340  0.17720866  0.00810830    -0.07300
C1802       C  0.12851185  0.16659212  0.03090624    -0.18500
C1803       C  0.14496733  0.15688223  0.02375256     0.09900
C1804       C  0.15253979  0.15701822  0.99293456    -0.07300
C1805       C  0.14269190  0.16615668  0.96993618    -0.18500
C1806       C  0.12701505  0.17671097  0.97724390     0.09900
S1807       S  0.15622158  0.14528346  0.05494992    -0.33500
S1808       S  0.11709627  0.19049362  0.94710462    -0.33500
H1809       H  0.12453199  0.18055906  0.92225557     0.27900
H1810       H  0.15215424  0.12125959  0.53392259     0.27900
H1811       H  0.12343005  0.16702416  0.05467530     0.18500
H1812       H  0.14843368  0.16665679  0.44535122     0.18500
C1813       C  0.23231805  0.14171609  0.06240047    -0.07300
C1814       C  0.24945049  0.15972936  0.08379063    -0.18500
C1815       C  0.24694918  0.15379417  0.11535049     0.09900
C1816       C  0.22692384  0.12933088  0.12544346    -0.07300
C1817       C  0.20956110  0.11193401  0.10386530    -0.18500
C1818       C  0.21201003  0.11772284  0.07275105     0.09900
S1819       S  0.26928962  0.17835721  0.14121583    -0.33500
S1820       S  0.18836707  0.09433420  0.04672800    -0.33500
H1821       H  0.17449228  0.07436176  0.06809419     0.27900
H1822       H  0.25143324  0.17240441  0.16523210     0.27900
H1823       H  0.26490759  0.17830382  0.07586393     0.18500
H1824       H  0.19408206  0.09324374  0.11135657     0.18500
C1825       C  0.23696264  0.11527365  0.37621252    -0.07300
C1826       C  0.25437969  0.13571814  0.35738419    -0.18500
C1827       C  0.25634659  0.13179870  0.32592476     0.09900
C1828       C  0.24035148  0.10702351  0.31307232    -0.07300
C1829       C  0.22498965  0.08616718  0.33258826    -0.18500
C1830       C  0.22322529  0.09001666  0.36396264     0.09900
S1831       S  0.27937137  0.15903761  0.30338104    -0.33500
S1832       S  0.20257081  0.06209826  0.38715443    -0.33500
H1833       H  0.21722833  0.07193311  0.41406896     0.27900
H1834       H  0.28418019  0.14426136  0.28197322     0.27900
H1835       H  0.26543613  0.15505738  0.36682451     0.18500
H1836       H  0.21332016  0.06693047  0.32311357     0.18500
C1837       C  0.44831128  0.61897096  0.09515516    -0.07300
C1838       C  0.46024763  0.63811371  0.11784251    -0.18500
C1839       C  0.47708843  0.66416280  0.10983959     0.09900
C1840       C  0.48173889  0.67125488  0.07847888    -0.07300
C1841       C  0.46788849  0.65238032  0.05599274    -0.18500
C1842       C  0.45152157  0.62638369  0.06394727     0.09900
S1843       S  0.49281872  0.68805305  0.13970955    -0.33500
S1844       S  0.43615290  0.60336804  0.03320060    -0.33500
H1845       H  0.41465365  0.58546221  0.05048899     0.27900
H1846       H  0.48006918  0.67155055  0.16473593     0.27900
H1847       H  0.45762641  0.63234934  0.14179361     0.18500
H1848       H  0.47115716  0.65754945  0.03184162     0.18500
C1849       C  0.33065418  0.51894166  0.08611016    -0.07300
C1850       C  0.31161880  0.50937786  0.10906233    -0.18500
C1851       C  0.28591371  0.50108449  0.10217155     0.09900
C1852       C  0.27887931  0.50211343  0.07145176    -0.07300
C1853       C  0.29827312  0.51346550  0.04885178    -0.18500
C1854       C  0.32413125  0.52174652  0.05578583     0.09900
S1855       S  0.26292266  0.48852474  0.13344597    -0.33500
S1856       S  0.34714167  0.53377621  0.02448764    -0.33500
H1857       H  0.36981521  0.54265642  0.04166229     0.27900
H1858       H  0.24521455  0.49462409  0.12030705     0.27900
H1859       H  0.31669778  0.50748087  0.13244964     0.18500
H1860       H  0.29303012  0.51419478  0.02522161     0.18500
C1861       C  0.42593986  0.52502669  0.01824592    -0.07300
C1862       C  0.45144962  0.54005955  0.00732133    -0.18500
C1863       C  0.45566521  0.54354284  0.47624890     0.09900
C1864       C  0.43554378  0.53732876  0.45530995    -0.07300
C1865       C  0.40993220  0.52305017  0.46526069    -0.18500
C1866       C  0.40391424  0.51568340  0.49602923     0.09900
S1867       S  0.48920370  0.56126872  0.46509715    -0.33500
S1868       S  0.37263472  0.49081819  0.00575767    -0.33500
H1869       H  0.37925808  0.47540993  0.02367466     0.27900
H1870       H  0.48566904  0.54938277  0.43623420     0.27900
H1871       H  0.46745507  0.54799664  0.02327929     0.18500
H1872       H  0.39447231  0.51815025  0.44900011     0.18500
C1873       C  0.44873948  0.56960120  0.20648264    -0.07300
C1874       C  0.46874352  0.56536214  0.21570050    -0.18500
C1875       C  0.47519558  0.56646461  0.24686136     0.09900
C1876       C  0.46107565  0.57158139  0.26908274    -0.07300
C1877       C  0.44232618  0.57741452  0.25963198    -0.18500
C1878       C  0.43661319  0.57733573  0.22867871     0.09900
S1879       S  0.50048262  0.55978070  0.25669480    -0.33500
S1880       S  0.41395165  0.58774728  0.21910351    -0.33500
H1881       H  0.42547841  0.59866343  0.19059603     0.27900
H1882       H  0.49131643  0.54990506  0.28619271     0.27900
H1883       H  0.47832182  0.55966370  0.19885831     0.18500
H1884       H  0.43233248  0.58254017  0.27657574     0.18500
C1885       C  0.61282175  0.45395401  0.15094747    -0.07300
C1886       C  0.62000166  0.45181563  0.18090134    -0.18500
C1887       C  0.64481406  0.46899693  0.19197993     0.09900
C1888       C  0.66331821  0.48882193  0.17251065    -0.07300
C1889       C  0.65632460  0.49010200  0.14205795    -0.18500
C1890       C  0.63147257  0.47289163  0.13110300     0.09900
S1891       S  0.65034950  0.46613369  0.23214726    -0.33500
S1892       S  0.62402867  0.47747258  0.09230949    -0.33500
H1893       H  0.60647543  0.45118465  0.08678441     0.27900
H1894       H  0.66055193  0.49258381  0.23841530     0.27900
H1895       H  0.60561554  0.43782164  0.19649102     0.18500
H1896       H  0.67011703  0.50509078  0.12686596     0.18500
C1897       C  0.52847669  0.43444810  0.23009614    -0.07300
C1898       C  0.52424565  0.45176279  0.24738362    -0.18500
C1899       C  0.53233741  0.45718745  0.27805021     0.09900
C1900       C  0.54440778  0.44451166  0.29186609    -0.07300
C1901       C  0.54828933  0.42705912  0.27426676    -0.18500
C1902       C  0.54093970  0.42224940  0.24365558     0.09900
S1903       S  0.52811037  0.48152860  0.29726686    -0.33500
S1904       S  0.54964816  0.40151633  0.22298791    -0.33500
H1905       H  0.55376423  0.41393490  0.19451478     0.27900
H1906       H  0.55323771  0.49463538  0.30942805     0.27900
H1907       H  0.51515724  0.46153460  0.23671578     0.18500
H1908       H  0.55790376  0.41751407  0.28408969     0.18500
C1909       C  0.56135490  0.46285996  0.47998263    -0.07300
C1910       C  0.56467544  0.44226135  0.48881363    -0.18500
C1911       C  0.56679042  0.43726146  0.02002477     0.09900
C1912       C  0.55910336  0.44961371  0.04196561    -0.07300
C1913       C  0.55486538  0.46969881  0.03265860    -0.18500
C1914       C  0.55678300  0.47671367  0.00170738     0.09900
S1915       S  0.57530987  0.41320024  0.03070156    -0.33500
S1916       S  0.55302645  0.50454389  0.49257610    -0.33500
H1917       H  0.54115671  0.49475818  0.46400847     0.27900
H1918       H  0.58278184  0.40944174  0.00132345     0.27900
H1919       H  0.56877324  0.43180276  0.47140798     0.18500
H1920       H  0.54883210  0.47912895  0.04932706     0.18500
C1921       C  0.46976545  0.35482528  0.06732086    -0.07300
C1922       C  0.47586201  0.36498902  0.03743655    -0.18500
C1923       C  0.46841746  0.34864393  0.01181013     0.09900
C1924       C  0.45462893  0.32158334  0.01619409    -0.07300
C1925       C  0.44682614  0.31148365  0.04589711    -0.18500
C1926       C  0.45423924  0.32783156  0.07151680     0.09900
S1927       S  0.48435394  0.36311982  0.47583529    -0.33500
S1928       S  0.44622059  0.31303221  0.10910328    -0.33500
H1929       H  0.44683076  0.33414517  0.12419295     0.27900
H1930       H  0.46367143  0.34438455  0.45841709     0.27900
H1931       H  0.48837781  0.38565693  0.03417810     0.18500
H1932       H  0.43670495  0.29068897  0.04935789     0.18500
C1933       C  0.47826915  0.45765913  0.12836419    -0.07300
C1934       C  0.45136317  0.44341589  0.12452385    -0.18500
C1935       C  0.43677133  0.45576515  0.12129710     0.09900
C1936       C  0.44909654  0.48314908  0.12276757    -0.07300
C1937       C  0.47601183  0.49723280  0.12673906    -0.18500
C1938       C  0.49055307  0.48499184  0.12971856     0.09900
S1939       S  0.40253873  0.43540768  0.11617431    -0.33500
S1940       S  0.52454629  0.50557694  0.13695434    -0.33500
H1941       H  0.52484241  0.49033815  0.16141734     0.27900
H1942       H  0.40318787  0.44483060  0.08632497     0.27900
H1943       H  0.44163965  0.42247231  0.12354466     0.18500
H1944       H  0.48601894  0.51818559  0.12777277     0.18500
C1945       C  0.50743587  0.33652663  0.17425520    -0.07300
C1946       C  0.51769114  0.32246726  0.16002397    -0.18500
C1947       C  0.50872180  0.29645315  0.16762111     0.09900
C1948       C  0.48910442  0.28417434  0.19000909    -0.07300
C1949       C  0.47998743  0.29875969  0.20526638    -0.18500
C1950       C  0.48890234  0.32456870  0.19789414     0.09900
S1951       S  0.52049978  0.27914855  0.14529563    -0.33500
S1952       S  0.47481576  0.34052352  0.21888795    -0.33500
H1953       H  0.49678958  0.36516762  0.21763898     0.27900
H1954       H  0.52895001  0.27146626  0.17122798     0.27900
H1955       H  0.53153279  0.33123616  0.14144443     0.18500
H1956       H  0.46501719  0.28971374  0.22260778     0.18500
C1957       C  0.17414308  0.51856142  0.33325994    -0.07300
C1958       C  0.16606892  0.49872395  0.31124226    -0.18500
C1959       C  0.18174640  0.48859214  0.30247848     0.09900
C1960       C  0.20644286  0.49853305  0.31554315    -0.07300
C1961       C  0.21544577  0.51942315  0.33596727    -0.18500
C1962       C  0.19976742  0.52972819  0.34471064     0.09900
S1963       S  0.16958332  0.46218569  0.27527028    -0.33500
S1964       S  0.21368827  0.55683029  0.37072110    -0.33500
H1965       H  0.20307706  0.57012320  0.35556255     0.27900
H1966       H  0.14644764  0.46165724  0.26816794     0.27900
H1967       H  0.14676516  0.49003307  0.30196594     0.18500
H1968       H  0.23451299  0.52728118  0.34582503     0.18500
C1969       C  0.23208514  0.43800442  0.39960883    -0.07300
C1970       C  0.24212149  0.46320098  0.41069505    -0.18500
C1971       C  0.23968363  0.46787321  0.44149292     0.09900
C1972       C  0.22572455  0.44680816  0.46173266    -0.07300
C1973       C  0.21579774  0.42139594  0.45075552    -0.18500
C1974       C  0.21892276  0.41680771  0.41968195     0.09900
S1975       S  0.25520901  0.50126775  0.45353745    -0.33500
S1976       S  0.20607640  0.38419719  0.40564999    -0.33500
H1977       H  0.19651282  0.37175610  0.43409672     0.27900
H1978       H  0.26140611  0.49660003  0.48310927     0.27900
H1979       H  0.25191818  0.47947607  0.39509539     0.18500
H1980       H  0.20481798  0.40526345  0.46618466     0.18500
C1981       C  0.21282243  0.44680516  0.21074418    -0.07300
C1982       C  0.20112546  0.46050944  0.20033717    -0.18500
C1983       C  0.19220842  0.45783844  0.17020237     0.09900
C1984       C  0.19462826  0.44063098  0.14972026    -0.07300
C1985       C  0.20550146  0.42611225  0.16089135    -0.18500
C1986       C  0.21477215  0.42911683  0.19099868     0.09900
S1987       S  0.17986747  0.47854065  0.15921759    -0.33500
S1988       S  0.22870018  0.40966482  0.20237459    -0.33500
H1989       H  0.24031752  0.42212134  0.23001156     0.27900
H1990       H  0.19820943  0.48988379  0.13545040     0.27900
H1991       H  0.19988525  0.47426180  0.21549534     0.18500
H1992       H  0.20742722  0.41270639  0.14584867     0.18500
C1993       C  0.31527994  0.46318640  0.23818787    -0.07300
C1994       C  0.30642101  0.45256748  0.20894263    -0.18500
C1995       C  0.32323811  0.46043886  0.18357673     0.09900
C1996       C  0.34944992  0.47943449  0.18753136    -0.07300
C1997       C  0.35858376  0.48864445  0.21717963    -0.18500
C1998       C  0.34185712  0.48058457  0.24249752     0.09900
S1999       S  0.30949526  0.44818584  0.14626674    -0.33500
S2000       S  0.35503446  0.49497890  0.27931273    -0.33500
H2001       H  0.33745525  0.47330757  0.29660516     0.27900
H2002       H  0.33170503  0.44947421  0.13362463     0.27900
H2003       H  0.28600029  0.43959071  0.20536545     0.18500
H2004       H  0.37858415  0.50354020  0.22031221     0.18500
C2005       C  0.32660713  0.51965061  0.34272102    -0.07300
C2006       C  0.34278322  0.54246206  0.32620060    -0.18500
C2007       C  0.36861578  0.55895345  0.33503969     0.09900
C2008       C  0.37859543  0.55228056  0.36061032    -0.07300
C2009       C  0.36172162  0.53085134  0.37856237    -0.18500
C2010       C  0.33597276  0.51479544  0.37020192     0.09900
S2011       S  0.38858768  0.58632170  0.31084618    -0.33500
S2012       S  0.31630012  0.48774611  0.39497813    -0.33500
H2013       H  0.29340822  0.48739298  0.38760074     0.27900
H2014       H  0.40184049  0.60313320  0.33530762     0.27900
H2015       H  0.33589659  0.54645961  0.30507100     0.18500
H2016       H  0.36905195  0.52579801  0.39854893     0.18500
C2017       C  0.99400390  0.15224341  0.24929319    -0.07300
C2018       C  0.01228815  0.15328999  0.22800090    -0.18500
C2019       C  0.03800922  0.16241853  0.23638739     0.09900
C2020       C  0.04584297  0.17057945  0.26688060    -0.07300
C2021       C  0.02729148  0.16786650  0.28865967    -0.18500
C2022       C  0.00149775  0.15849885  0.28037298     0.09900
S2023       S  0.06034108  0.16602879  0.20625994    -0.33500
S2024       S  0.97938625  0.15577897  0.31035316    -0.33500
H2025       H  0.95779698  0.13409953  0.29755302     0.27900
H2026       H  0.07832037  0.16421300  0.22511853     0.27900
H2027       H  0.00702732  0.14871940  0.20403949     0.18500
H2028       H  0.03321248  0.17417719  0.31211515     0.18500
C2029       C  0.21163102  0.36475862  0.29808574    -0.07300
C2030       C  0.22517717  0.35242354  0.28841714    -0.18500
C2031       C  0.21213910  0.32567309  0.28203374     0.09900
C2032       C  0.18512148  0.31064855  0.28673674    -0.07300
C2033       C  0.17189745  0.32306800  0.29696888    -0.18500
C2034       C  0.18463598  0.34956156  0.30274538     0.09900
S2035       S  0.23057070  0.31243578  0.26537153    -0.33500
S2036       S  0.16506117  0.36247917  0.31682389    -0.33500
H2037       H  0.18300798  0.37805860  0.33921583     0.27900
H2038       H  0.21155337  0.29696533  0.24378942     0.27900
H2039       H  0.24575804  0.36389224  0.28419055     0.18500
H2040       H  0.15124180  0.31192897  0.30089263     0.18500
C2041       C  0.14865296  0.15962051  0.24626714    -0.07300
C2042       C  0.16679889  0.16743085  0.22225882    -0.18500
C2043       C  0.17720636  0.15226244  0.21294749     0.09900
C2044       C  0.17023690  0.12884928  0.22842138    -0.07300
C2045       C  0.15029815  0.11961232  0.25028567    -0.18500
C2046       C  0.13903022  0.13444981  0.25888181     0.09900
S2047       S  0.19909595  0.16376038  0.18071126    -0.33500
S2048       S  0.11264321  0.12007169  0.28590409    -0.33500
H2049       H  0.09812472  0.12925986  0.27065401     0.27900
H2050       H  0.18744572  0.13934943  0.16652973     0.27900
H2051       H  0.17367615  0.18596354  0.21104942     0.18500
H2052       H  0.14395788  0.10111100  0.26133114     0.18500
C2053       C  0.18520860  0.21336834  0.35097491    -0.07300
C2054       C  0.19864419  0.20089906  0.34169391    -0.18500
C2055       C  0.20857844  0.19096257  0.36341593     0.09900
C2056       C  0.20503552  0.19369554  0.39501704    -0.07300
C2057       C  0.19418374  0.20874074  0.40415267    -0.18500
C2058       C  0.18432086  0.21867844  0.38240864     0.09900
S2059       S  0.22488409  0.17408014  0.35059937    -0.33500
S2060       S  0.17018487  0.23731897  0.39596957    -0.33500
H2061       H  0.17542704  0.25200558  0.36890358     0.27900
H2062       H  0.22365383  0.17787469  0.31886937     0.27900
H2063       H  0.19958632  0.19718298  0.31747053     0.18500
H2064       H  0.19183376  0.21136589  0.42838551     0.18500
C2065       C  0.12020132  0.22759700  0.12067965    -0.07300
C2066       C  0.13335234  0.25294331  0.13237334    -0.18500
C2067       C  0.13954411  0.25759930  0.16365734     0.09900
C2068       C  0.13249728  0.23641551  0.18348648    -0.07300
C2069       C  0.12114194  0.21136193  0.17146876    -0.18500
C2070       C  0.11501269  0.20670097  0.14035868     0.09900
S2071       S  0.15467069  0.29060483  0.17709276    -0.33500
S2072       S  0.10046835  0.17366119  0.12734951    -0.33500
H2073       H  0.11013708  0.18005884  0.09726204     0.27900
H2074       H  0.16670000  0.28747219  0.20305879     0.27900
H2075       H  0.13766689  0.26908630  0.11737387     0.18500
H2076       H  0.11661656  0.19520606  0.18662691     0.18500
C2077       C  0.09186332  0.23995606  0.43350423    -0.07300
C2078       C  0.11112888  0.26126223  0.41727809    -0.18500
C2079       C  0.11594040  0.25918486  0.38607308     0.09900
C2080       C  0.10074741  0.23535638  0.37059650    -0.07300
C2081       C  0.08085177  0.21453538  0.38677322    -0.18500
C2082       C  0.07673022  0.21629719  0.41794757     0.09900
S2083       S  0.14251201  0.28712125  0.36819295    -0.33500
S2084       S  0.05373480  0.18666976  0.43692967    -0.33500
H2085       H  0.06807466  0.19130988  0.46406330     0.27900
H2086       H  0.15259567  0.27329775  0.35314795     0.27900
H2087       H  0.12299956  0.27936663  0.42922587     0.18500
H2088       H  0.06918153  0.19608605  0.37539933     0.18500
O2089       O  0.10051317  0.20371390  0.83407008    -0.83000
C2090       C  0.13266635  0.23497825  0.71610230     0.96300
O2091       O  0.11333462  0.22984587  0.73277334    -0.72100
O2092       O  0.07992586  0.20698129  0.77782421    -0.75700
Al2093     Al  0.11409064  0.23599363  0.77563249     1.49000
C2094       C  0.07104886  0.18293766  0.77614333     0.91600
O2095       O  0.12889614  0.17189346  0.78421718    -0.81900
O2096       O  0.17584428  0.22158854  0.80064825    -0.75500
Al2097     Al  0.11587677  0.19060812  0.80632520     1.90100
O2098       O  0.15224598  0.19776793  0.74714057    -0.74600
O2099       O  0.17593204  0.26386483  0.78351678    -0.74400
O2100       O  0.15406718  0.24023925  0.72771835    -0.80100
O2101       O  0.14375023  0.26945050  0.77162543    -0.78300
O2102       O  0.13067874  0.21876245  0.78267597    -1.14400
O2103       O  0.11371200  0.24338093  0.81830058    -0.73600
C2104       C  0.10522659  0.22650782  0.83940382     0.97100
C2105       C  0.14195595  0.17584243  0.75999125     0.93500
Al2106     Al  0.16187087  0.23000944  0.76619142     1.55600
O2107       O  0.08530735  0.17347004  0.78162801    -0.78200
C2108       C  0.16682761  0.27864452  0.77989871     0.97700
C2109       C  0.16742403  0.21312241  0.82725092     0.92500
O2110       O  0.14396053  0.20395182  0.83394343    -0.83600
O2111       O  0.24289240  0.46434730  0.74415861    -0.83000
C2112       C  0.23540257  0.43242342  0.86630798     0.96300
O2113       O  0.21613050  0.42414244  0.84863576    -0.72100
O2114       O  0.21046899  0.45950978  0.82126416    -0.75700
Al2115     Al  0.21383784  0.43186811  0.80616133     1.49000
C2116       C  0.21859980  0.48145840  0.80965306     0.91600
O2117       O  0.28448957  0.50015458  0.81303864    -0.81900
O2118       O  0.28103552  0.43730656  0.77566824    -0.75500
Al2119     Al  0.26236143  0.48035172  0.77965925     1.90100
O2120       O  0.29740421  0.47250744  0.82312997    -0.74600
O2121       O  0.24398412  0.40217782  0.81268294    -0.74400
O2122       O  0.25782610  0.44032686  0.85600492    -0.80100
O2123       O  0.21053431  0.40083940  0.79165793    -0.78300
O2124       O  0.24798620  0.45039707  0.80047446    -1.14400
O2125       O  0.20558894  0.43633530  0.76507956    -0.73600
C2126       C  0.21925857  0.44785997  0.74186370     0.97100
C2127       C  0.30072759  0.49510027  0.82488732     0.93500
Al2128     Al  0.26820115  0.43893679  0.81553612     1.55600
O2129       O  0.23816578  0.49120948  0.79226728    -0.78200
C2130       C  0.22196574  0.38943323  0.80073274     0.97700
C2131       C  0.29270753  0.45700627  0.75849915     0.92500
O2132       O  0.28919712  0.47609500  0.76138307    -0.83600
O2133       O  0.54402897  0.41677220  0.57904387    -0.83000
C2134       C  0.52193336  0.43065292  0.69798911     0.96300
O2135       O  0.53160787  0.44921584  0.67885399    -0.72100
O2136       O  0.57223772  0.45324609  0.65183088    -0.75700
Al2137     Al  0.54117324  0.44952919  0.63648027     1.49000
C2138       C  0.58486858  0.44277785  0.64332640     0.91600
O2139       O  0.53615209  0.37794352  0.64977228    -0.81900
O2140       O  0.47851596  0.38289833  0.61085307    -0.75500
Al2141     Al  0.53943605  0.39884959  0.61525063     1.90100
O2142       O  0.49571648  0.36573094  0.65852161    -0.74600
O2143       O  0.48215922  0.42091975  0.64680731    -0.74400
O2144       O  0.50672454  0.40760228  0.68974424    -0.80100
O2145       O  0.51306703  0.45242545  0.62093580    -0.78300
O2146       O  0.52492614  0.41500525  0.63391950    -1.14400
O2147       O  0.55378467  0.45541119  0.59517167    -0.73600
C2148       C  0.55199837  0.44021322  0.57386278     0.97100
C2149       C  0.51450587  0.36190391  0.66096188     0.93500
Al2150     Al  0.49342058  0.39600912  0.65016635     1.55600
O2151       O  0.57433496  0.42217802  0.62784196    -0.78200
C2152       C  0.49059999  0.44158146  0.63172995     0.97700
C2153       C  0.48615656  0.37098558  0.59357220     0.92500
O2154       O  0.50783393  0.37256454  0.59748094    -0.83600
O2155       O  0.41353295  0.55171640  0.67262088    -0.83000
C2156       C  0.41945391  0.52229701  0.55179499     0.96300
O2157       O  0.43855202  0.53368546  0.56985833    -0.72100
O2158       O  0.44410626  0.57618463  0.59371196    -0.75700
Al2159     Al  0.44156585  0.54617339  0.61141222     1.49000
C2160       C  0.43542227  0.59002864  0.60377510     0.91600
O2161       O  0.37139801  0.54342823  0.60489204    -0.81900
O2162       O  0.37551517  0.48508840  0.64351527    -0.75500
Al2163     Al  0.39369846  0.54676093  0.63777816     1.90100
O2164       O  0.35725211  0.50224239  0.59710942    -0.74600
O2165       O  0.41179485  0.48681902  0.60525596    -0.74400
O2166       O  0.39677592  0.51001271  0.56236444    -0.80100
O2167       O  0.44453459  0.51865024  0.62822457    -0.78300
O2168       O  0.40762255  0.53073010  0.61754364    -1.14400
O2169       O  0.45076036  0.56143090  0.65172025    -0.73600
C2170       C  0.43729705  0.56004210  0.67489174     0.97100
C2171       C  0.35401598  0.52153429  0.59580974     0.93500
Al2172     Al  0.38714218  0.49876753  0.60321533     1.55600
O2173       O  0.41724506  0.58116265  0.62312704    -0.78200
C2174       C  0.43342297  0.49585243  0.61824663     0.97700
C2175       C  0.36451061  0.49344385  0.66123360     0.92500
O2176       O  0.36758136  0.51589308  0.65780639    -0.83600
O2177       O  0.20722287  0.11356084  0.91245228    -0.83000
C2178       C  0.23358279  0.14597107  0.52957381     0.96300
O2179       O  0.23280406  0.12905545  0.51152267    -0.72100
O2180       O  0.21369763  0.09686196  0.96737084    -0.75700
Al2181     Al  0.24029793  0.13202787  0.96933821     1.49000
C2182       C  0.18943211  0.08519025  0.97016730     0.91600
O2183       O  0.17087651  0.13865424  0.96021980    -0.81900
O2184       O  0.21837460  0.18792944  0.94397362    -0.75500
Al2185     Al  0.19208492  0.12769617  0.93961387     1.90100
O2186       O  0.19469048  0.16314191  0.99789219    -0.74600
O2187       O  0.26253257  0.19358138  0.96397416    -0.74400
O2188       O  0.23528283  0.16672287  0.51964941    -0.80100
O2189       O  0.27181057  0.16342436  0.97380128    -0.78300
O2190       O  0.22001883  0.14530440  0.96305899    -1.14400
O2191       O  0.24790122  0.13302638  0.92665656    -0.73600
C2192       C  0.23060000  0.12074016  0.90687368     0.97100
C2193       C  0.17345879  0.15188451  0.98393558     0.93500
Al2194     Al  0.22787015  0.17570819  0.97974382     1.55600
O2195       O  0.17756593  0.09737689  0.96543052    -0.78200
C2196       C  0.27893695  0.18654198  0.96755313     0.97700
C2197       C  0.21054559  0.17850646  0.91743484     0.92500
O2198       O  0.20337769  0.15518914  0.91159985    -0.83600
O2199       O  0.45987589  0.25277266  0.50964481    -0.83000
C2200       C  0.43050392  0.24399974  0.88734544     0.96300
O2201       O  0.42044164  0.22566132  0.90675412    -0.72100
O2202       O  0.45444858  0.21866937  0.93622796    -0.75700
Al2203     Al  0.42774627  0.22447600  0.94984384     1.49000
C2204       C  0.47687372  0.22745476  0.94663045     0.91600
O2205       O  0.49888415  0.29406867  0.94270595    -0.81900
O2206       O  0.43651307  0.29414137  0.97279762    -0.75500
Al2207     Al  0.47720238  0.27241583  0.97522171     1.90100
O2208       O  0.47319435  0.30799726  0.92792234    -0.74600
O2209       O  0.40228933  0.25740413  0.93645797    -0.74400
O2210       O  0.44118627  0.26735201  0.89580273    -0.80100
O2211       O  0.39801463  0.22492184  0.96362951    -0.78300
O2212       O  0.44814825  0.25877661  0.95325232    -1.14400
O2213       O  0.43121249  0.21655717  0.99177298    -0.73600
C2214       C  0.44292260  0.22940417  0.51321258     0.97100
C2215       C  0.49544159  0.31079459  0.92931428     0.93500
Al2216     Al  0.43906908  0.27979471  0.93477458     1.55600
O2217       O  0.48701638  0.24733210  0.96352584    -0.78200
C2218       C  0.38863150  0.23793653  0.95301258     0.97700
C2219       C  0.45443380  0.30412563  0.99237024     0.92500
O2220       O  0.47291870  0.29961006  0.99208997    -0.83600
O2221       O  0.51696887  0.13585555  0.83555347    -0.83000
C2222       C  0.52354340  0.09640905  0.94994907     0.96300
O2223       O  0.50355502  0.09585909  0.93958218    -0.72100
O2224       O  0.50451576  0.13819824  0.92068161    -0.75700
Al2225     Al  0.49571301  0.10610984  0.90127373     1.49000
C2226       C  0.51603848  0.16058775  0.90914242     0.91600
O2227       O  0.57321013  0.16075948  0.89131151    -0.81900
O2228       O  0.54439918  0.09417762  0.84637799    -0.75500
Al2229     Al  0.54389605  0.14662771  0.86457152     1.90100
O2230       O  0.57699229  0.12607752  0.89097669    -0.74600
O2231       O  0.51220426  0.06463139  0.88848784    -0.74400
O2232       O  0.54156684  0.09888908  0.93259657    -0.80100
O2233       O  0.48027293  0.07202803  0.88445946    -0.78300
O2234       O  0.52715397  0.11678625  0.88531992    -1.14400
O2235       O  0.48302426  0.11510259  0.86589021    -0.73600
C2236       C  0.49300762  0.12542527  0.84035082     0.97100
C2237       C  0.58672400  0.15014154  0.89469596     0.93500
Al2238     Al  0.54237877  0.09759639  0.88942038     1.55600
O2239       O  0.53125367  0.16528491  0.88701659    -0.78200
C2240       C  0.48886869  0.05672610  0.88319924     0.97700
C2241       C  0.55493636  0.11296329  0.82799284     0.92500
O2242       O  0.56011541  0.13529532  0.83615059    -0.83600
O2243       O  0.38155253  0.87219007  0.92096473    -0.83000
C2244       C  0.42974731  0.90143734  0.80565671     0.96300
O2245       O  0.41176849  0.90548722  0.81409237    -0.72100
O2246       O  0.37066725  0.86383142  0.83333012    -0.75700
Al2247     Al  0.39166054  0.89645743  0.85180113     1.49000
C2248       C  0.35725488  0.84286329  0.84753174     0.91600
O2249       O  0.41115262  0.84153928  0.87131227    -0.81900
O2250       O  0.45001645  0.91174511  0.91004723    -0.75500
Al2251     Al  0.39681168  0.85831962  0.89522468     1.90100
O2252       O  0.45043186  0.87510208  0.87158510    -0.74600
O2253       O  0.44876593  0.93756325  0.86177281    -0.74400
O2254       O  0.44341543  0.89831742  0.82520541    -0.80100
O2255       O  0.40975941  0.93084001  0.86765589    -0.78300
O2256       O  0.41108859  0.88637509  0.87141231    -1.14400
O2257       O  0.36766469  0.88861651  0.88558815    -0.73600
C2258       C  0.36741644  0.88121365  0.91298272     0.97100
C2259       C  0.43519876  0.85114502  0.86758210     0.93500
Al2260     Al  0.44529028  0.90427788  0.86745773     1.55600
O2261       O  0.36506256  0.83902451  0.87276987    -0.78200
C2262       C  0.43369113  0.94616526  0.86631600     0.97700
C2263       C  0.44239995  0.89425243  0.93022283     0.92500
O2264       O  0.42450798  0.87146386  0.92436135    -0.83600
O2265       O  0.19998757  0.05811859  0.66333142    -0.83000
C2266       C  0.23726695  0.10190061  0.78001757     0.96300
O2267       O  0.23663682  0.08186690  0.76940477    -0.72100
O2268       O  0.19260434  0.04261674  0.75093100    -0.75700
Al2269     Al  0.22534892  0.06351140  0.73139325     1.49000
C2270       C  0.17133181  0.03141117  0.73705197     0.91600
O2271       O  0.17352670  0.08813860  0.71935926    -0.81900
O2272       O  0.24142328  0.12583509  0.67626227    -0.75500
Al2273     Al  0.18808482  0.07342413  0.69242266     1.90100
O2274       O  0.20856401  0.12659713  0.72052438    -0.74600
O2275       O  0.26875613  0.12066870  0.71941196    -0.74400
O2276       O  0.23440712  0.11727655  0.76280208    -0.80100
O2277       O  0.25938951  0.08041204  0.71480603    -0.78300
O2278       O  0.21677958  0.08547775  0.71468703    -1.14400
O2279       O  0.21541668  0.04116932  0.69605982    -0.73600
C2280       C  0.20775574  0.04248238  0.66933787     0.97100
C2281       C  0.18433537  0.11238795  0.72319771     0.93500
Al2282     Al  0.23664518  0.11970034  0.71950522     1.55600
O2283       O  0.16838835  0.04111682  0.71287714    -0.78200
C2284       C  0.27558351  0.10423758  0.71442449     0.97700
C2285       C  0.22302763  0.11873151  0.65765807     0.92500
O2286       O  0.20046854  0.10206692  0.66558285    -0.83600
O2287       O  0.46866940  0.18560052  0.74799892    -0.83000
C2288       C  0.42735616  0.19457336  0.63810879     0.96300
O2289       O  0.42403178  0.17309203  0.64805761    -0.72100
O2290       O  0.46538429  0.17242407  0.66543337    -0.75700
Al2291     Al  0.43441382  0.16424709  0.68609399     1.49000
C2292       C  0.48877091  0.18659686  0.67214424     0.91600
O2293       O  0.48916810  0.24339905  0.69584360    -0.81900
O2294       O  0.42285997  0.21074897  0.74244160    -0.75500
Al2295     Al  0.47662920  0.21291461  0.72085570     1.90100
O2296       O  0.45443644  0.24597563  0.70050025    -0.74600
O2297       O  0.39433042  0.18136276  0.69591213    -0.74400
O2298       O  0.43087637  0.21277494  0.65596792    -0.80100
O2299       O  0.40087747  0.14937945  0.70438092    -0.78300
O2300       O  0.44619506  0.19587530  0.70195730    -1.14400
O2301       O  0.44342329  0.15086324  0.72089475    -0.73600
C2302       C  0.45612286  0.16140159  0.74496618     0.97100
C2303       C  0.47818190  0.25663166  0.69501380     0.93500
Al2304     Al  0.42722471  0.21119995  0.69892987     1.55600
O2305       O  0.49506057  0.20252803  0.69393533    -0.78200
C2306       C  0.38568577  0.15794221  0.70184785     0.97700
C2307       C  0.44176877  0.22139846  0.76084291     0.92500
O2308       O  0.46407593  0.22616703  0.75261719    -0.83600
O2309       O  0.14745633  0.94927590  0.58357553    -0.83000
C2310       C  0.13682980  0.90757992  0.96456251     0.96300
O2311       O  0.15805028  0.92419597  0.97659494    -0.72100
O2312       O  0.15694665  0.96485340  0.99552365    -0.75700
Al2313     Al  0.16743565  0.94166281  0.51672261     1.49000
C2314       C  0.15056945  0.97770028  0.50930684     0.91600
O2315       O  0.09182651  0.92411985  0.52752633    -0.81900
O2316       O  0.11631680  0.87991349  0.56572419    -0.75500
Al2317     Al  0.12081123  0.93598792  0.55427137     1.90100
O2318       O  0.08461995  0.88444520  0.52390411    -0.74600
O2319       O  0.14761204  0.88371981  0.52124433    -0.74400
O2320       O  0.11746019  0.89340006  0.98123109    -0.80100
O2321       O  0.18012021  0.92101226  0.53465286    -0.78300
O2322       O  0.13565844  0.92217686  0.53154033    -1.14400
O2323       O  0.18064365  0.96402329  0.55222314    -0.73600
C2324       C  0.17110658  0.96401844  0.57823840     0.97100
C2325       C  0.07691800  0.90051349  0.52156853     0.93500
Al2326     Al  0.11840859  0.88840487  0.52360225     1.55600
O2327       O  0.13624815  0.96902189  0.53287442    -0.78200
C2328       C  0.17082287  0.89720041  0.52936917     0.97700
C2329       C  0.10683363  0.88759485  0.58623916     0.92500
O2330       O  0.10307930  0.90637570  0.58128931    -0.83600
O2331       O  0.27726566  0.82162891  0.99972505    -0.83000
C2332       C  0.23423952  0.80867542  0.61822195     0.96300
O2333       O  0.25228078  0.82932548  0.60663923    -0.72100
O2334       O  0.29214860  0.82647972  0.58617583    -0.75700
Al2335     Al  0.26977029  0.83680844  0.56755019     1.49000
C2336       C  0.30326280  0.81630913  0.57210909     0.91600
O2337       O  0.24787546  0.76017557  0.55399322    -0.81900
O2338       O  0.20708665  0.78840914  0.51561058    -0.75500
Al2339     Al  0.26111674  0.78991704  0.52775938     1.90100
O2340       O  0.20916610  0.75519401  0.55883064    -0.74600
O2341       O  0.21184628  0.81985509  0.55996990    -0.74400
O2342       O  0.21897983  0.78989097  0.60156453    -0.80100
O2343       O  0.25075912  0.85207619  0.55121234    -0.78300
O2344       O  0.24865018  0.80558948  0.55144310    -1.14400
O2345       O  0.29172081  0.85007908  0.53167371    -0.73600
C2346       C  0.29068242  0.84107643  0.50498224     0.97100
C2347       C  0.22435648  0.74643112  0.56127254     0.93500
Al2348     Al  0.21469067  0.78972097  0.55844101     1.55600
O2349       O  0.29350237  0.80329676  0.54807213    -0.78200
C2350       C  0.22673273  0.84313162  0.55282312     0.97700
C2351       C  0.21549695  0.78166243  0.99651422     0.92500
O2352       O  0.23375801  0.77734702  0.00148783    -0.83600
O2353       O  0.21376239  0.75797039  0.74996933    -0.83000
C2354       C  0.18260268  0.76363521  0.86983855     0.96300
O2355       O  0.19421831  0.78282672  0.85169311    -0.72100
O2356       O  0.23576489  0.79037661  0.82297024    -0.75700
Al2357     Al  0.20403873  0.78548009  0.80878184     1.49000
C2358       C  0.24911654  0.78028181  0.81616533     0.91600
O2359       O  0.19980953  0.71238691  0.81773886    -0.81900
O2360       O  0.14379909  0.71893212  0.77830944    -0.75500
Al2361     Al  0.20557712  0.73672439  0.78513602     1.90100
O2362       O  0.15957249  0.70072164  0.82532208    -0.74600
O2363       O  0.14438818  0.75444232  0.81616814    -0.74400
O2364       O  0.16835086  0.74092727  0.85957184    -0.80100
O2365       O  0.17574736  0.78789253  0.79414990    -0.78300
O2366       O  0.18921860  0.75119231  0.80411794    -1.14400
O2367       O  0.21609183  0.79355466  0.76741833    -0.73600
C2368       C  0.21824767  0.78071570  0.74578237     0.97100
C2369       C  0.17778722  0.69619737  0.82804917     0.93500
Al2370     Al  0.15708684  0.73076138  0.81856394     1.55600
O2371       O  0.23922012  0.75895836  0.80213839    -0.78200
C2372       C  0.15265785  0.77558691  0.80241111     0.97700
C2373       C  0.15305628  0.70945732  0.75952720     0.92500
O2374       O  0.17535269  0.71235330  0.76316184    -0.83600
O2375       O  0.08222081  0.88199697  0.83792317    -0.83000
C2376       C  0.08376327  0.85813186  0.71278288     0.96300
O2377       O  0.10321436  0.86867435  0.73033295    -0.72100
O2378       O  0.10934739  0.91062604  0.75656087    -0.75700
Al2379     Al  0.10744529  0.88039110  0.77241874     1.49000
C2380       C  0.10303136  0.92511372  0.77033362     0.91600
O2381       O  0.03948267  0.88173343  0.77362386    -0.81900
O2382       O  0.03977493  0.81908108  0.80397713    -0.75500
Al2383     Al  0.06196062  0.88141058  0.80453878     1.90100
O2384       O  0.02368229  0.84103494  0.76026579    -0.74600
O2385       O  0.07514405  0.82078131  0.76591893    -0.74400
O2386       O  0.06136250  0.84641047  0.72402858    -0.80100
O2387       O  0.11002492  0.85217274  0.78696815    -0.78300
O2388       O  0.07379090  0.86542424  0.78049504    -1.14400
O2389       O  0.11875591  0.89514290  0.81318817    -0.73600
C2390       C  0.10615787  0.89053322  0.83811048     0.97100
C2391       C  0.02152615  0.86102289  0.76230905     0.93500
Al2392     Al  0.05189823  0.83445257  0.76471473     1.55600
O2393       O  0.08708149  0.91644982  0.79238672    -0.78200
C2394       C  0.09681860  0.82900159  0.77862574     0.97700
C2395       C  0.02970269  0.82724564  0.82313588     0.92500
O2396       O  0.03458794  0.85042314  0.82249242    -0.83600
O2397       O  0.86449630  0.45215407  0.57784672    -0.83000
C2398       C  0.89882399  0.47993730  0.69876962     0.96300
O2399       O  0.90730088  0.46980359  0.67981198    -0.72100
O2400       O  0.87379733  0.42836735  0.65159015    -0.75700
Al2401     Al  0.90030047  0.46041803  0.63721331     1.49000
C2402       C  0.85027287  0.41486749  0.64530233     0.91600
O2403       O  0.83028945  0.46091147  0.64629637    -0.81900
O2404       O  0.89217966  0.52046955  0.61016971    -0.75500
Al2405     Al  0.84996079  0.45781989  0.61335422     1.90100
O2406       O  0.85725269  0.50128858  0.65669288    -0.74600
O2407       O  0.92689212  0.51959447  0.64732506    -0.74400
O2408       O  0.88923983  0.49335138  0.68948859    -0.80100
O2409       O  0.93066267  0.48989091  0.62302545    -0.78300
O2410       O  0.88019764  0.47443990  0.63318071    -1.14400
O2411       O  0.89661909  0.44848396  0.59586486    -0.73600
C2412       C  0.88265153  0.44761320  0.57379939     0.97100
C2413       C  0.83492337  0.48190539  0.65851723     0.93500
Al2414     Al  0.89048981  0.50580123  0.64937439     1.55600
O2415       O  0.83935037  0.42395327  0.62900761    -0.78200
C2416       C  0.94053496  0.51238578  0.63342373     0.97700
C2417       C  0.87387009  0.51139329  0.59103306     0.92500
O2418       O  0.85496348  0.48849107  0.59319532    -0.83600
O2419       O  0.12032661  0.58326747  0.68050632    -0.83000
C2420       C  0.09130909  0.57873692  0.55697476     0.96300
O2421       O  0.08271860  0.55982876  0.57531802    -0.72100
O2422       O  0.11987177  0.55544370  0.59997955    -0.75700
Al2423     Al  0.09172936  0.55710015  0.61677183     1.49000
C2424       C  0.14160141  0.56321903  0.61206872     0.91600
O2425       O  0.16085804  0.62689085  0.61545030    -0.81900
O2426       O  0.09831992  0.62572493  0.64623368    -0.75500
Al2427     Al  0.13883429  0.60397117  0.64658660     1.90100
O2428       O  0.13510048  0.64096464  0.60062333    -0.74600
O2429       O  0.06411023  0.58863714  0.61009013    -0.74400
O2430       O  0.10223452  0.60166001  0.56693117    -0.80100
O2431       O  0.06126486  0.55457812  0.63273360    -0.78300
O2432       O  0.11047633  0.59117868  0.62351983    -1.14400
O2433       O  0.09636581  0.54649878  0.65670956    -0.73600
C2434       C  0.10510495  0.55918469  0.68118777     0.97100
C2435       C  0.15739583  0.64371434  0.60234892     0.93500
Al2436     Al  0.10071683  0.61236710  0.60727762     1.55600
O2437       O  0.14950872  0.58002195  0.63313520    -0.78200
C2438       C  0.05096961  0.56734764  0.62401486     0.97700
C2439       C  0.11651465  0.63578952  0.66538005     0.92500
O2440       O  0.13451972  0.63061879  0.66494833    -0.83600
O2441       O  0.78325303  0.53959608  0.50716943    -0.83000
C2442       C  0.81047442  0.57854956  0.89043150     0.96300
O2443       O  0.79947500  0.58587435  0.90958849    -0.72100
O2444       O  0.75849285  0.55095082  0.93844519    -0.75700
Al2445     Al  0.79079584  0.57771812  0.95216059     1.49000
C2446       C  0.74509842  0.52767113  0.94642161     0.91600
O2447       O  0.79263919  0.50896799  0.93873830    -0.81900
O2448       O  0.85183475  0.57037903  0.97708471    -0.75500
Al2449     Al  0.78984290  0.52730718  0.97327261     1.90100
O2450       O  0.83305528  0.53668210  0.92890222    -0.74600
O2451       O  0.85056100  0.60627531  0.94261244    -0.74400
O2452       O  0.82494225  0.56998285  0.89880169    -0.80100
O2453       O  0.81984567  0.60838875  0.96622642    -0.78300
O2454       O  0.80568683  0.55824622  0.95455457    -1.14400
O2455       O  0.77946780  0.57247573  0.99380833    -0.73600
C2456       C  0.77943843  0.55802820  0.51324311     0.97100
C2457       C  0.81390015  0.51412893  0.92677335     0.93500
Al2458     Al  0.83721868  0.56985752  0.93825761     1.55600
O2459       O  0.75527198  0.51653809  0.96023117    -0.78200
C2460       C  0.84272385  0.61928680  0.95683568     0.97700
C2461       C  0.84324077  0.55090219  0.99460197     0.92500
O2462       O  0.82075852  0.53164666  0.99146733    -0.83600
O2463       O  0.89765470  0.79877656  0.91445526    -0.83000
C2464       C  0.90590841  0.77379993  0.53557571     0.96300
O2465       O  0.88986544  0.77557072  0.51852238    -0.72100
O2466       O  0.87682991  0.79741740  0.97297266    -0.75700
Al2467     Al  0.88392788  0.76965366  0.97563607     1.49000
C2468       C  0.89106698  0.82171716  0.97211002     0.91600
O2469       O  0.96087996  0.83700957  0.95721316    -0.81900
O2470       O  0.96043226  0.78788467  0.94700678    -0.75500
Al2471     Al  0.92783169  0.81475201  0.93940806     1.90100
O2472       O  0.96212316  0.81601746  0.99757840    -0.74600
O2473       O  0.92208728  0.74580598  0.97126477    -0.74400
O2474       O  0.92475920  0.77255477  0.52438121    -0.80100
O2475       O  0.88299682  0.73782467  0.98075412    -0.78300
O2476       O  0.91745221  0.78870736  0.96637557    -1.14400
O2477       O  0.87467288  0.75978479  0.93383643    -0.73600
C2478       C  0.88017298  0.77545208  0.91186228     0.97100
C2479       C  0.97193483  0.83630841  0.98141012     0.93500
Al2480     Al  0.94024099  0.78150647  0.98337153     1.55600
O2481       O  0.91434085  0.83209819  0.96350649    -0.78200
C2482       C  0.89848395  0.72990671  0.97552293     0.97700
C2483       C  0.95833907  0.79342612  0.91958726     0.92500
O2484       O  0.94219464  0.80024933  0.91248589    -0.83600
O2485       O  0.84705085  0.79939481  0.66655328    -0.83000
C2486       C  0.85458447  0.76592895  0.78543760     0.96300
O2487       O  0.83459895  0.76463656  0.77393453    -0.72100
O2488       O  0.83610155  0.80691259  0.75300318    -0.75700
Al2489     Al  0.82719616  0.77428933  0.73479688     1.49000
C2490       C  0.84532276  0.82805183  0.73857421     0.91600
O2491       O  0.90305953  0.83116170  0.72230394    -0.81900
O2492       O  0.87753617  0.76239586  0.68347351    -0.75500
Al2493     Al  0.87402900  0.81375035  0.69560295     1.90100
O2494       O  0.90900964  0.79793368  0.72780527    -0.74600
O2495       O  0.84571811  0.73425161  0.72616797    -0.74400
O2496       O  0.87376819  0.77056383  0.76893033    -0.80100
O2497       O  0.81291988  0.73999122  0.71887893    -0.78300
O2498       O  0.85870407  0.78532231  0.71914634    -1.14400
O2499       O  0.81406266  0.78202622  0.69855150    -0.73600
C2500       C  0.82327312  0.78988440  0.67190031     0.97100
C2501       C  0.91715214  0.82194464  0.72995757     0.93500
Al2502     Al  0.87514487  0.76784876  0.72602329     1.55600
O2503       O  0.85918728  0.83181942  0.71517454    -0.78200
C2504       C  0.82229539  0.72529581  0.71996918     0.97700
C2505       C  0.88744579  0.77990592  0.66346301     0.92500
O2506       O  0.89212919  0.80250923  0.66941352    -0.83600
O2507       O  0.71288890  0.53708637  0.75434423    -0.83000
C2508       C  0.76157720  0.56882080  0.64105285     0.96300
O2509       O  0.74302904  0.57192577  0.64941394    -0.72100
O2510       O  0.70030512  0.53211349  0.67045531    -0.75700
Al2511     Al  0.72448997  0.56491012  0.68748178     1.49000
C2512       C  0.68955809  0.50997125  0.68256730     0.91600
O2513       O  0.74613632  0.50931434  0.70574362    -0.81900
O2514       O  0.78292357  0.57862348  0.74576705    -0.75500
Al2515     Al  0.73003207  0.52513216  0.72879287     1.90100
O2516       O  0.78434069  0.54386527  0.70609493    -0.74600
O2517       O  0.78245480  0.60532662  0.69783730    -0.74400
O2518       O  0.77645958  0.56705967  0.66012863    -0.80100
O2519       O  0.74402760  0.60002230  0.70108678    -0.78300
O2520       O  0.74404664  0.55400748  0.70613655    -1.14400
O2521       O  0.70302777  0.55932694  0.72234768    -0.73600
C2522       C  0.70116929  0.54914037  0.74832543     0.97100
C2523       C  0.77038998  0.51968383  0.70375163     0.93500
Al2524     Al  0.77842388  0.57217950  0.70266731     1.55600
O2525       O  0.69986178  0.50562328  0.70507665    -0.78200
C2526       C  0.76802112  0.61476508  0.69991518     0.97700
C2527       C  0.77430418  0.56071862  0.76564085     0.92500
O2528       O  0.75640894  0.53832081  0.75884676    -0.83600
O2529       O  0.61729675  0.48907679  0.83551479    -0.83000
C2530       C  0.56617325  0.46959038  0.94729661     0.96300
O2531       O  0.58228620  0.49233845  0.93842739    -0.72100
O2532       O  0.62595233  0.49545133  0.92194283    -0.75700
Al2533     Al  0.60297583  0.50379257  0.90167986     1.49000
C2534       C  0.63866067  0.48577644  0.91068771     0.91600
O2535       O  0.58613477  0.42827985  0.88473354    -0.81900
O2536       O  0.54692532  0.45776226  0.84379505    -0.75500
Al2537     Al  0.60098660  0.45990857  0.86114925     1.90100
O2538       O  0.54682543  0.42132143  0.88147851    -0.74600
O2539       O  0.54542750  0.48329380  0.89246858    -0.74400
O2540       O  0.55355898  0.45135948  0.92862024    -0.80100
O2541       O  0.58294229  0.51726878  0.88380609    -0.78300
O2542       O  0.58533919  0.47314073  0.88308849    -1.14400
O2543       O  0.62694020  0.52039558  0.86879163    -0.73600
C2544       C  0.62943326  0.51267123  0.84267846     0.97100
C2545       C  0.56208092  0.41298764  0.88611904     0.93500
Al2546     Al  0.55108678  0.45503720  0.88640346     1.55600
O2547       O  0.63108434  0.47261887  0.88633894    -0.78200
C2548       C  0.55881530  0.50694852  0.88603484     0.97700
C2549       C  0.55683020  0.45029441  0.82344617     0.92500
O2550       O  0.57464484  0.44555465  0.83025034    -0.83600
O2551       O  0.47914790  0.61106731  0.92001887    -0.83000
C2552       C  0.46543708  0.56990084  0.80121940     0.96300
O2553       O  0.48711232  0.58612747  0.81234419    -0.72100
O2554       O  0.48685864  0.62720998  0.83381026    -0.75700
Al2555     Al  0.49601311  0.60357288  0.85127717     1.49000
C2556       C  0.47687565  0.63855341  0.84784630     0.91600
O2557       O  0.41964557  0.58335758  0.86871863    -0.81900
O2558       O  0.44840220  0.54128285  0.90261318    -0.75500
Al2559     Al  0.45061274  0.59649665  0.89302426     1.90100
O2560       O  0.41409646  0.54444652  0.86414282    -0.74600
O2561       O  0.47718403  0.54565337  0.85507723    -0.74400
O2562       O  0.44645915  0.55541325  0.81821911    -0.80100
O2563       O  0.51000944  0.58305831  0.86673762    -0.78300
O2564       O  0.46497609  0.58344466  0.86824590    -1.14400
O2565       O  0.51066432  0.62526925  0.88629931    -0.73600
C2566       C  0.50254452  0.62568684  0.91295287     0.97100
C2567       C  0.40520999  0.55956313  0.86299258     0.93500
Al2568     Al  0.44799237  0.54957858  0.86057349     1.55600
O2569       O  0.46365215  0.62877572  0.87188420    -0.78200
C2570       C  0.50046104  0.55905766  0.86254575     0.97700
C2571       C  0.44020034  0.54918475  0.92442559     0.92500
O2572       O  0.43539777  0.56733730  0.92052748    -0.83600
O2573       O  0.53509393  0.72029080  0.99536820    -0.83000
C2574       C  0.56034338  0.76277778  0.61320981     0.96300
O2575       O  0.56607497  0.74617680  0.60396748    -0.72100
O2576       O  0.52373573  0.70630558  0.58244838    -0.75700
Al2577     Al  0.55738910  0.72723169  0.56570940     1.49000
C2578       C  0.50302003  0.69523966  0.56731840     0.91600
O2579       O  0.50515129  0.75086539  0.54096922    -0.81900
O2580       O  0.57758855  0.78978609  0.51138458    -0.75500
Al2581     Al  0.52272671  0.73576617  0.51975143     1.90100
O2582       O  0.53955239  0.78883334  0.54659876    -0.74600
O2583       O  0.59949862  0.78423502  0.56036832    -0.74400
O2584       O  0.55790847  0.77752242  0.59454993    -0.80100
O2585       O  0.59224635  0.74521331  0.55087637    -0.78300
O2586       O  0.54899428  0.74822955  0.54602161    -1.14400
O2587       O  0.54975060  0.70364119  0.53216638    -0.73600
C2588       C  0.54309678  0.70342479  0.50461798     0.97100
C2589       C  0.51531068  0.77487276  0.54573073     0.93500
Al2590     Al  0.56713400  0.78219843  0.55282372     1.55600
O2591       O  0.50129274  0.70434271  0.54180978    -0.78200
C2592       C  0.60773336  0.76918647  0.55332749     0.97700
C2593       C  0.56347527  0.78363749  0.98959185     0.92500
O2594       O  0.54005134  0.76625216  0.99285905    -0.83600
O2595       O  0.79322378  0.84907888  0.58753121    -0.83000
C2596       C  0.76252245  0.86474805  0.97236034     0.96300
O2597       O  0.75893084  0.84312530  0.98173782    -0.72100
O2598       O  0.80167785  0.84572138  0.00066327    -0.75700
Al2599     Al  0.76831305  0.83314039  0.51893774     1.49000
C2600       C  0.82302668  0.85511448  0.51394214     0.91600
O2601       O  0.82244692  0.90958809  0.53796585    -0.81900
O2602       O  0.75255901  0.87711739  0.57676413    -0.75500
Al2603     Al  0.80617656  0.87810841  0.56162587     1.90100
O2604       O  0.78819101  0.91373127  0.53726573    -0.74600
O2605       O  0.72712589  0.84907116  0.52900774    -0.74400
O2606       O  0.76547479  0.88224796  0.99095741    -0.80100
O2607       O  0.73331300  0.81639171  0.53410840    -0.78300
O2608       O  0.77811909  0.86326615  0.53801926    -1.14400
O2609       O  0.77594127  0.81785950  0.55309025    -0.73600
C2610       C  0.78396081  0.82570305  0.58003662     0.97100
C2611       C  0.81226578  0.92348484  0.53424206     0.93500
Al2612     Al  0.75984311  0.87909066  0.53384073     1.55600
O2613       O  0.82597184  0.86694078  0.53888334    -0.78200
C2614       C  0.71814075  0.82517590  0.53228563     0.97700
C2615       C  0.77007820  0.88719439  0.59679185     0.92500
O2616       O  0.79270765  0.89207881  0.59077694    -0.83600
O2617       O  0.94699753  0.15391240  0.66435671    -0.83000
C2618       C  0.89883731  0.14070551  0.77806964     0.96300
O2619       O  0.91753657  0.16227961  0.76950684    -0.72100
O2620       O  0.95756587  0.15929665  0.75116616    -0.75700
Al2621     Al  0.93713785  0.17147793  0.73188884     1.49000
C2622       C  0.96752288  0.14721041  0.73902925     0.91600
O2623       O  0.91105701  0.09357352  0.71461468    -0.81900
O2624       O  0.87707295  0.12798622  0.67428247    -0.75500
Al2625     Al  0.92845045  0.12499933  0.69062985     1.90100
O2626       O  0.87388085  0.09206183  0.71501609    -0.74600
O2627       O  0.88064743  0.15809796  0.71955104    -0.74400
O2628       O  0.88359019  0.12440906  0.75899871    -0.80100
O2629       O  0.92061787  0.18921171  0.71536606    -0.78300
O2630       O  0.91599780  0.14136177  0.71309067    -1.14400
O2631       O  0.96080759  0.18559715  0.69817285    -0.73600
C2632       C  0.96164521  0.17727737  0.67172646     0.97100
C2633       C  0.88688002  0.08098471  0.71846099     0.93500
Al2634     Al  0.88180034  0.12702039  0.71680733     1.55600
O2635       O  0.95830747  0.13464505  0.71462483    -0.78200
C2636       C  0.89685180  0.18143993  0.71443372     0.97700
C2637       C  0.88501836  0.11837279  0.65431919     0.92500
O2638       O  0.90180610  0.11224220  0.66056408    -0.83600
O2639       O  0.80853261  0.27932793  0.75002920    -0.83000
C2640       C  0.80638741  0.24081840  0.63123034     0.96300
O2641       O  0.82575502  0.25999660  0.64339225    -0.72100
O2642       O  0.82078582  0.29842181  0.66469536    -0.75700
Al2643     Al  0.83154833  0.27643185  0.68296465     1.49000
C2644       C  0.80904983  0.30819157  0.67801729     0.91600
O2645       O  0.75393670  0.25028853  0.69251092    -0.81900
O2646       O  0.78414729  0.21209838  0.73341525    -0.75500
Al2647     Al  0.78241644  0.26447584  0.72013290     1.90100
O2648       O  0.75124209  0.21230677  0.68892012    -0.74600
O2649       O  0.81754561  0.21911627  0.68980738    -0.74400
O2650       O  0.78767834  0.22446905  0.64733794    -0.80100
O2651       O  0.84802664  0.25864248  0.69904239    -0.78300
O2652       O  0.80024425  0.25376078  0.69756830    -1.14400
O2653       O  0.84268150  0.29686564  0.71981374    -0.73600
C2654       C  0.83237291  0.29446564  0.74598947     0.97100
C2655       C  0.74118505  0.22640401  0.68639937     0.93500
Al2656     Al  0.78635880  0.21988876  0.69043429     1.55600
O2657       O  0.79488408  0.29719721  0.70087818    -0.78200
C2658       C  0.84058977  0.23495200  0.69657460     0.97700
C2659       C  0.77274615  0.21850327  0.75297185     0.92500
O2660       O  0.76615819  0.23482289  0.74588135    -0.83600
O2661       O  0.03839605  0.19666704  0.57237528    -0.83000
C2662       C  0.09014203  0.24131673  0.96724795     0.96300
O2663       O  0.06776947  0.23324080  0.97805608    -0.72100
O2664       O  0.02816053  0.20251120  0.01287346    -0.75700
Al2665     Al  0.05708745  0.23452766  0.51879579     1.49000
C2666       C  0.02255694  0.17962709  0.50758675     0.91600
O2667       O  0.08485029  0.18000134  0.53221179    -0.81900
O2668       O  0.12030326  0.23560340  0.56643493    -0.75500
Al2669     Al  0.06278015  0.19129231  0.54977117     1.90100
O2670       O  0.11520865  0.21414668  0.50873213    -0.74600
O2671       O  0.11453579  0.27209832  0.54297224    -0.74400
O2672       O  0.10982876  0.25027672  0.98454421    -0.80100
O2673       O  0.08136618  0.27067007  0.52110882    -0.78300
O2674       O  0.07737007  0.22233208  0.53161554    -1.14400
O2675       O  0.04605145  0.23578934  0.55974655    -0.73600
C2676       C  0.03601399  0.21626648  0.57747354     0.97100
C2677       C  0.10482340  0.19055062  0.51561951     0.93500
Al2678     Al  0.11155151  0.24136868  0.52601457     1.55600
O2679       O  0.03882794  0.17359693  0.51676858    -0.78200
C2680       C  0.10246788  0.28317520  0.53482183     0.97700
C2681       C  0.10701512  0.22111815  0.58834864     0.92500
O2682       O  0.08375145  0.20409642  0.58460948    -0.83600
O2683       O  0.17698748  0.47798141  0.00841951    -0.83000
C2684       C  0.18433388  0.43648483  0.61690560     0.96300
O2685       O  0.17145076  0.44635355  0.60685338    -0.72100
O2686       O  0.16249690  0.47699243  0.57102206    -0.75700
Al2687     Al  0.15873317  0.44313987  0.56663443     1.49000
C2688       C  0.18174036  0.49962471  0.57073898     0.91600
O2689       O  0.24022902  0.49419558  0.54467220    -0.81900
O2690       O  0.21903292  0.43878594  0.51567919    -0.75500
Al2691     Al  0.20612279  0.48301719  0.52939306     1.90100
O2692       O  0.23525397  0.46152791  0.57262712    -0.74600
O2693       O  0.17624354  0.40423813  0.54029500    -0.74400
O2694       O  0.19322630  0.42626273  0.59854945    -0.80100
O2695       O  0.14625548  0.40632936  0.56642440    -0.78300
O2696       O  0.19008495  0.45362193  0.55070649    -1.14400
O2697       O  0.14395693  0.43948298  0.52722714    -0.73600
C2698       C  0.15261046  0.45751185  0.50757037     0.97100
C2699       C  0.24894487  0.48449271  0.56360328     0.93500
Al2700     Al  0.20465606  0.43431036  0.55633796     1.55600
O2701       O  0.20320403  0.50355573  0.56105979    -0.78200
C2702       C  0.15387602  0.39343873  0.55122882     0.97700
C2703       C  0.22035672  0.45224814  0.99145865     0.92500
O2704       O  0.21272020  0.46826927  0.99349302    -0.83600
O2705       O  0.85188857  0.37258005  0.84173774    -0.83000
C2706       C  0.89276645  0.42399931  0.94864990     0.96300
O2707       O  0.88292792  0.40113002  0.93882523    -0.72100
O2708       O  0.85168288  0.36223312  0.90412465    -0.75700
Al2709     Al  0.88577657  0.39087132  0.89876158     1.49000
C2710       C  0.82944432  0.35951665  0.90312151     0.91600
O2711       O  0.83745175  0.42400284  0.87237848    -0.81900
O2712       O  0.89218631  0.45615792  0.84722784    -0.75500
Al2713     Al  0.84760352  0.39939232  0.85971867     1.90100
O2714       O  0.86829794  0.45027785  0.90330080    -0.74600
O2715       O  0.92610371  0.44777545  0.87387895    -0.74400
O2716       O  0.90299275  0.44322874  0.93059314    -0.80100
O2717       O  0.92271086  0.41414850  0.89765853    -0.78300
O2718       O  0.87632700  0.41230969  0.88219679    -1.14400
O2719       O  0.88870258  0.37811291  0.85971773    -0.73600
C2720       C  0.87023449  0.36787592  0.84085183     0.97100
C2721       C  0.84660211  0.44253835  0.89128532     0.93500
Al2722     Al  0.89574595  0.44635455  0.88825525     1.55600
O2723       O  0.82599318  0.37692383  0.89163757    -0.78200
C2724       C  0.93620244  0.43500513  0.88313668     0.97700
C2725       C  0.88135473  0.44309777  0.82343464     0.92500
O2726       O  0.86520242  0.41931090  0.82499750    -0.83600
O2727       O  0.12613694  0.51777264  0.91958136    -0.83000
C2728       C  0.08675472  0.52642904  0.80639621     0.96300
O2729       O  0.08448274  0.50545706  0.81653931    -0.72100
O2730       O  0.12803751  0.50841725  0.83300998    -0.75700
Al2731     Al  0.09639014  0.49769774  0.85413416     1.49000
C2732       C  0.15053368  0.51978245  0.84398269     0.91600
O2733       O  0.15038231  0.57626224  0.86611427    -0.81900
O2734       O  0.08257310  0.54349635  0.91035679    -0.75500
Al2735     Al  0.13637686  0.54547217  0.89177575     1.90100
O2736       O  0.11505066  0.57829174  0.86770763    -0.74600
O2737       O  0.05512100  0.51293710  0.86477976    -0.74400
O2738       O  0.09131144  0.54485031  0.82429733    -0.80100
O2739       O  0.06277888  0.48149549  0.87303781    -0.78300
O2740       O  0.10687288  0.52873896  0.87094038    -1.14400
O2741       O  0.10675006  0.48463355  0.88801887    -0.73600
C2742       C  0.11646735  0.49398732  0.91390732     0.97100
C2743       C  0.13904288  0.58921371  0.86320935     0.93500
Al2744     Al  0.08762157  0.54351367  0.86709015     1.55600
O2745       O  0.15528534  0.53366287  0.86761750    -0.78200
C2746       C  0.04710155  0.48959398  0.87092792     0.97700
C2747       C  0.10112071  0.55497201  0.92893342     0.92500
O2748       O  0.12360588  0.55992591  0.92157630    -0.83600
O2749       O  0.79222158  0.92106174  0.84029583    -0.83000
C2750       C  0.75444542  0.90778933  0.72170277     0.96300
O2751       O  0.74597517  0.88928778  0.74094667    -0.72100
O2752       O  0.78289731  0.88498130  0.76601011    -0.75700
Al2753     Al  0.75611961  0.88886491  0.78301442     1.49000
C2754       C  0.80592735  0.89478766  0.77441559     0.91600
O2755       O  0.82332384  0.96003679  0.76858497    -0.81900
O2756       O  0.76124473  0.95552066  0.80976161    -0.75500
Al2757     Al  0.80564038  0.93901670  0.80367148     1.90100
O2758       O  0.79536850  0.97276119  0.76148452    -0.74600
O2759       O  0.72662514  0.91795140  0.77338905    -0.74400
O2760       O  0.76372194  0.93102136  0.73029925    -0.80100
O2761       O  0.72593139  0.88679819  0.79991929    -0.78300
O2762       O  0.77487977  0.92329667  0.78556076    -1.14400
O2763       O  0.76341737  0.88252692  0.82419608    -0.73600
C2764       C  0.77688640  0.89756472  0.84562713     0.97100
C2765       C  0.81779680  0.97627833  0.75781164     0.93500
Al2766     Al  0.76267153  0.94262626  0.77003013     1.55600
O2767       O  0.81636740  0.91503563  0.79059586    -0.78200
C2768       C  0.71436661  0.89756165  0.78891071     0.97700
C2769       C  0.78093733  0.96711216  0.82680203     0.92500
O2770       O  0.80101443  0.96563725  0.82190314    -0.83600
O2771       O  0.52837411  0.78457634  0.74578948    -0.83000
C2772       C  0.56792274  0.81283270  0.86514300     0.96300
O2773       O  0.57550232  0.80281560  0.84489727    -0.72100
O2774       O  0.53828487  0.75955042  0.82238012    -0.75700
Al2775     Al  0.56404582  0.79049180  0.80387752     1.49000
C2776       C  0.51539776  0.74509776  0.81370465     0.91600
O2777       O  0.49403778  0.78940222  0.81620143    -0.81900
O2778       O  0.55458223  0.85003978  0.77861929    -0.75500
Al2779     Al  0.51346956  0.78769694  0.78222098     1.90100
O2780       O  0.52071886  0.83012108  0.82702915    -0.74600
O2781       O  0.59078782  0.84904403  0.81303309    -0.74400
O2782       O  0.55501172  0.82342384  0.85764382    -0.80100
O2783       O  0.59272786  0.81948364  0.78555127    -0.78300
O2784       O  0.54378555  0.80435393  0.80139881    -1.14400
O2785       O  0.55690590  0.77548420  0.76342362    -0.73600
C2786       C  0.54473496  0.77767172  0.74113382     0.97100
C2787       C  0.49840653  0.81046090  0.82818460     0.93500
Al2788     Al  0.55433087  0.83554215  0.81769873     1.55600
O2789       O  0.50463894  0.75349857  0.79588210    -0.78200
C2790       C  0.60352915  0.84174279  0.79707261     0.97700
C2791       C  0.53569446  0.84070383  0.76029977     0.92500
O2792       O  0.51657269  0.81815803  0.76393249    -0.83600
O2793       O  0.56509658  0.12718551  0.58152407    -0.83000
C2794       C  0.56741546  0.10029353  0.69937624     0.96300
O2795       O  0.55210169  0.10238194  0.68140693    -0.72100
O2796       O  0.54090066  0.12351188  0.63555567    -0.75700
Al2797     Al  0.54783396  0.09545805  0.63947875     1.49000
C2798       C  0.55504619  0.14788652  0.63665997     0.91600
O2799       O  0.62565482  0.16244447  0.62946894    -0.81900
O2800       O  0.62547475  0.11383226  0.61529453    -0.75500
Al2801     Al  0.59378496  0.14192487  0.60860253     1.90100
O2802       O  0.62461560  0.13859751  0.66814797    -0.74600
O2803       O  0.58487252  0.07080340  0.63509496    -0.74400
O2804       O  0.58485394  0.09607758  0.68929770    -0.80100
O2805       O  0.54599324  0.06297633  0.64537484    -0.78300
O2806       O  0.58175459  0.11433667  0.63295984    -1.14400
O2807       O  0.54098676  0.08695733  0.59728935    -0.73600
C2808       C  0.54784992  0.10396909  0.57658596     0.97100
C2809       C  0.63542850  0.15979631  0.65380094     0.93500
Al2810     Al  0.60303549  0.10541827  0.65046608     1.55600
O2811       O  0.57914477  0.15815957  0.63305519    -0.78200
C2812       C  0.56125301  0.05493756  0.63904966     0.97700
C2813       C  0.62474120  0.12140733  0.58832867     0.92500
O2814       O  0.60927746  0.12907316  0.58147866    -0.83600
O2815       O  0.44787049  0.86425407  0.67119668    -0.83000
C2816       C  0.47499678  0.90618778  0.55410872     0.96300
O2817       O  0.46405538  0.91347290  0.57348227    -0.72100
O2818       O  0.42262685  0.87716976  0.59936970    -0.75700
Al2819     Al  0.45406976  0.90318357  0.61565624     1.49000
C2820       C  0.40910561  0.85353303  0.60543859     0.91600
O2821       O  0.45618151  0.83527030  0.59723841    -0.81900
O2822       O  0.51418086  0.89504185  0.64101162    -0.75500
Al2823     Al  0.45273394  0.85191208  0.63352496     1.90100
O2824       O  0.49699944  0.86339301  0.59053759    -0.74600
O2825       O  0.51373388  0.93213758  0.60807289    -0.74400
O2826       O  0.48936142  0.89748490  0.56239347    -0.80100
O2827       O  0.48251959  0.93300141  0.63217436    -0.78300
O2828       O  0.46891366  0.88366708  0.61696429    -1.14400
O2829       O  0.44182372  0.89601487  0.65726555    -0.73600
C2830       C  0.44295321  0.88179172  0.67802586     0.97100
C2831       C  0.47788203  0.84120616  0.58573943     0.93500
Al2832     Al  0.50074992  0.89602504  0.60180809     1.55600
O2833       O  0.41842323  0.84204497  0.62024887    -0.78200
C2834       C  0.50563905  0.94420087  0.62383479     0.97700
C2835       C  0.50560591  0.87441012  0.65645755     0.92500
O2836       O  0.48343009  0.85509100  0.65145229    -0.83600
O2837       O  0.87695713  0.08055624  0.90882676    -0.83000
C2838       C  0.85565326  0.09876797  0.52829835     0.96300
O2839       O  0.86434227  0.11548295  0.50698510    -0.72100
O2840       O  0.90487682  0.11883880  0.98113765    -0.75700
Al2841     Al  0.87359201  0.11367335  0.96542087     1.49000
C2842       C  0.91843956  0.10923579  0.97321928     0.91600
O2843       O  0.87199169  0.04380631  0.98142047    -0.81900
O2844       O  0.81172376  0.04515840  0.94528460    -0.75500
Al2845     Al  0.87360460  0.06356627  0.94620064     1.90100
O2846       O  0.83196448  0.03149482  0.99292036    -0.74600
O2847       O  0.81552813  0.08421000  0.97864334    -0.74400
O2848       O  0.84179221  0.07487176  0.52257121    -0.80100
O2849       O  0.84463306  0.11395370  0.94924324    -0.78300
O2850       O  0.85865158  0.07932411  0.96485108    -1.14400
O2851       O  0.88592731  0.11890373  0.92438313    -0.73600
C2852       C  0.88364491  0.10366829  0.90301086     0.97100
C2853       C  0.85112791  0.02823830  0.99461777     0.93500
Al2854     Al  0.82798079  0.06038069  0.98307339     1.55600
O2855       O  0.90875785  0.08840587  0.95799048    -0.78200
C2856       C  0.82279446  0.10374860  0.96173939     0.97700
C2857       C  0.81897812  0.03301274  0.92796014     0.92500
O2858       O  0.84144886  0.03595232  0.93000098    -0.83600
O2859       O  0.76385737  0.22715209  0.50098319    -0.83000
C2860       C  0.75849194  0.19433139  0.88219442     0.96300
O2861       O  0.77353433  0.21336563  0.89866566    -0.72100
O2862       O  0.78536957  0.24715166  0.94351482    -0.75700
Al2863     Al  0.77958404  0.21235728  0.94095519     1.49000
C2864       C  0.76989215  0.25569261  0.94284024     0.91600
O2865       O  0.70146180  0.19873127  0.95552130    -0.81900
O2866       O  0.70309417  0.15129147  0.97008896    -0.75500
Al2867     Al  0.73415734  0.21137293  0.97508558     1.90100
O2868       O  0.70176352  0.17541023  0.91700104    -0.74600
O2869       O  0.74408487  0.15027453  0.94896299    -0.74400
O2870       O  0.74139226  0.17314539  0.89399711    -0.80100
O2871       O  0.78214442  0.18208505  0.93590977    -0.78300
O2872       O  0.74590760  0.19619707  0.94982124    -1.14400
O2873       O  0.78866584  0.21234074  0.98281077    -0.73600
C2874       C  0.78158925  0.22175692  0.50447723     0.97100
C2875       C  0.69101314  0.18569543  0.93166452     0.93500
Al2876     Al  0.72452775  0.16513808  0.93384631     1.55600
O2877       O  0.74651262  0.24129368  0.94986444    -0.78200
C2878       C  0.76766166  0.15880860  0.94356974     0.97700
C2879       C  0.70470861  0.16004209  0.99701908     0.92500
O2880       O  0.72037399  0.18345396  0.00296321    -0.83600
C2881       C  0.80629649  0.11540287  0.95676115    -0.07300
C2882       C  0.81064550  0.13023115  0.93005727    -0.18500
C2883       C  0.79721127  0.14324734  0.92450610     0.09900
C2884       C  0.77895558  0.14188389  0.94616442    -0.07300
C2885       C  0.77367613  0.12625733  0.97231039    -0.18500
C2886       C  0.78740440  0.11337926  0.97813763     0.09900
S2887       S  0.80393365  0.16090451  0.88892839    -0.33500
S2888       S  0.78168353  0.09825063  0.51707260    -0.33500
H2889       H  0.80835884  0.10944099  0.52220317     0.27900
H2890       H  0.77819931  0.15464619  0.88451508     0.27900
H2891       H  0.82472671  0.13177086  0.91320410     0.18500
H2892       H  0.75931316  0.12605643  0.49156522     0.18500
C2893       C  0.64423090  0.12453275  0.56533167    -0.07300
C2894       C  0.67013303  0.13743813  0.57447399    -0.18500
C2895       C  0.69006078  0.14752694  0.55274061     0.09900
C2896       C  0.68411986  0.14454191  0.52104683    -0.07300
C2897       C  0.65823824  0.12920542  0.51202962    -0.18500
C2898       C  0.63820277  0.11941890  0.53383898     0.09900
S2899       S  0.72262855  0.16480188  0.56683411    -0.33500
S2900       S  0.60504080  0.10142599  0.52127679    -0.33500
H2901       H  0.61019777  0.10216283  0.48959763     0.27900
H2902       H  0.73257639  0.15780564  0.54167594     0.27900
H2903       H  0.67491724  0.14132925  0.59865153     0.18500
H2904       H  0.65358620  0.12671586  0.48776875     0.18500
C2905       C  0.52288086  0.97201781  0.63108486    -0.07300
C2906       C  0.54271279  0.98758418  0.61024600    -0.18500
C2907       C  0.55692162  0.01461161  0.61338498     0.09900
C2908       C  0.55073274  0.02659889  0.63730990    -0.07300
C2909       C  0.53194318  0.01093663  0.65906457    -0.18500
C2910       C  0.51853498  0.98393427  0.65673663     0.09900
S2911       S  0.58094283  0.03282745  0.58460243    -0.33500
S2912       S  0.49640160  0.96591116  0.68747688    -0.33500
H2913       H  0.50127838  0.94518966  0.68657047     0.27900
H2914       H  0.60085248  0.04553341  0.60618355     0.27900
H2915       H  0.54651961  0.97877386  0.59064040     0.18500
H2916       H  0.52758237  0.01987273  0.67809001     0.18500
C2917       C  0.53552354  0.85516897  0.73321513    -0.07300
C2918       C  0.53511722  0.84440374  0.70445485    -0.18500
C2919       C  0.52812198  0.85259369  0.67809381     0.09900
C2920       C  0.52125112  0.87188375  0.68049592    -0.07300
C2921       C  0.52386524  0.88432952  0.70876104    -0.18500
C2922       C  0.53073687  0.87590617  0.73539916     0.09900
S2923       S  0.52617795  0.83625010  0.64243537    -0.33500
S2924       S  0.53026859  0.88934721  0.77243540    -0.33500
H2925       H  0.52399231  0.90767112  0.76155916     0.27900
H2926       H  0.53175598  0.85752321  0.62351089     0.27900
H2927       H  0.53876161  0.82839765  0.70283660     0.18500
H2928       H  0.51816119  0.89885679  0.71045433     0.18500
C2929       C  0.80125251  0.01478718  0.90501932    -0.07300
C2930       C  0.79851812  0.02464464  0.87692500    -0.18500
C2931       C  0.78892112  0.00866539  0.85099975     0.09900
C2932       C  0.78135247  0.98223160  0.85358674    -0.07300
C2933       C  0.78152064  0.97196565  0.88252071    -0.18500
C2934       C  0.79136261  0.98796075  0.90825754     0.09900
S2935       S  0.79026611  0.02376294  0.81462143    -0.33500
S2936       S  0.79296463  0.97350359  0.94397047    -0.33500
H2937       H  0.79126287  0.99163256  0.96300291     0.27900
H2938       H  0.77019828  0.00156814  0.80071809     0.27900
H2939       H  0.80599707  0.04527196  0.87448130     0.18500
H2940       H  0.77594450  0.95171218  0.88454933     0.18500
C2941       C  0.68609013  0.88543825  0.79238963    -0.07300
C2942       C  0.67149851  0.88386409  0.76633696    -0.18500
C2943       C  0.64445287  0.87015550  0.76712094     0.09900
C2944       C  0.63167132  0.85822178  0.79476186    -0.07300
C2945       C  0.64616184  0.86037606  0.82099154    -0.18500
C2946       C  0.67314435  0.87371878  0.82012193     0.09900
S2947       S  0.62749970  0.86797559  0.73200223    -0.33500
S2948       S  0.68983347  0.87505097  0.85512474    -0.33500
H2949       H  0.71097042  0.90001258  0.84995591     0.27900
H2950       H  0.60420434  0.86317664  0.74562819     0.27900
H2951       H  0.68123129  0.89263071  0.74488409     0.18500
H2952       H  0.63631446  0.85106154  0.84221382     0.18500
C2953       C  0.96426162  0.44537827  0.87774407    -0.07300
C2954       C  0.97912684  0.44140903  0.89978258    -0.18500
C2955       C  0.00628810  0.45473005  0.89792683     0.09900
C2956       C  0.01885490  0.47216242  0.87337997    -0.07300
C2957       C  0.00389977  0.47485664  0.85064990    -0.18500
C2958       C  0.97707298  0.46150182  0.85222895     0.09900
S2959       S  0.02379562  0.45027514  0.92856783    -0.33500
S2960       S  0.96045066  0.46556002  0.82031750    -0.33500
H2961       H  0.94051470  0.43959574  0.82103162     0.27900
H2962       H  0.04292991  0.47652903  0.92993612     0.27900
H2963       H  0.96968731  0.42906158  0.91946197     0.18500
H2964       H  0.01330958  0.48768338  0.83128894     0.18500
C2965       C  0.80775162  0.33473256  0.91393682    -0.07300
C2966       C  0.80678702  0.32873453  0.94521144    -0.18500
C2967       C  0.79233408  0.30317492  0.95562347     0.09900
C2968       C  0.77966314  0.28289928  0.93419058    -0.07300
C2969       C  0.77936785  0.28894024  0.90312865    -0.18500
C2970       C  0.79280901  0.31467988  0.89290675     0.09900
S2971       S  0.79206935  0.29762980  0.99629551    -0.33500
S2972       S  0.79239715  0.32046203  0.85233775    -0.33500
H2973       H  0.79191699  0.34357229  0.85615821     0.27900
H2974       H  0.76763621  0.27514386  0.99696399     0.27900
H2975       H  0.81842490  0.34387513  0.96145525     0.18500
H2976       H  0.76954992  0.27347476  0.88655458     0.18500
C2977       C  0.11855157  0.47746949  0.93731676    -0.07300
C2978       C  0.13225810  0.46494002  0.92938161    -0.18500
C2979       C  0.14215684  0.45586894  0.95224751     0.09900
C2980       C  0.13727068  0.45847323  0.98332641    -0.07300
C2981       C  0.12076854  0.46785459  0.99099858    -0.18500
C2982       C  0.11174194  0.47790427  0.96837459     0.09900
S2983       S  0.16282304  0.44306800  0.94199873    -0.33500
S2984       S  0.09362560  0.49293392  0.98105486    -0.33500
H2985       H  0.08349578  0.49370909  0.95232921     0.27900
H2986       H  0.16120143  0.44495544  0.90992930     0.27900
H2987       H  0.13736889  0.46460430  0.90552137     0.18500
H2988       H  0.11712120  0.46987367  0.01500530     0.18500
C2989       C  0.13735774  0.36530792  0.54743299    -0.07300
C2990       C  0.13372080  0.34935244  0.57283135    -0.18500
C2991       C  0.12183235  0.32242340  0.56958733     0.09900
C2992       C  0.11338476  0.31114394  0.54028196    -0.07300
C2993       C  0.11628151  0.32709205  0.51507400    -0.18500
C2994       C  0.12831042  0.35402062  0.51829939     0.09900
S2995       S  0.11809457  0.30355577  0.60359393    -0.33500
S2996       S  0.13463641  0.37469456  0.98402446    -0.33500
H2997       H  0.13566030  0.39584601  0.99948061     0.27900
H2998       H  0.09500252  0.28152899  0.59445224     0.27900
H2999       H  0.14093852  0.35801148  0.59516561     0.18500
H3000       H  0.11098281  0.32008391  0.99219181     0.18500
C3001       C  0.99866381  0.16028228  0.99533058    -0.07300
C3002       C  0.98586149  0.13403200  0.50131248    -0.18500
C3003       C  0.95990125  0.11640650  0.49386254     0.09900
C3004       C  0.94648285  0.12480657  0.97951061    -0.07300
C3005       C  0.95890333  0.15039954  0.96895939    -0.18500
C3006       C  0.98454020  0.16797910  0.97616051     0.09900
S3007       S  0.94586925  0.08366905  0.50778869    -0.33500
S3008       S  0.99740413  0.20003590  0.96021245    -0.33500
H3009       H  0.02198605  0.20368285  0.95441394     0.27900
H3010       H  0.92123809  0.08017591  0.51372003     0.27900
H3011       H  0.99635453  0.12743399  0.51530696     0.18500
H3012       H  0.94826779  0.15694683  0.95509247     0.18500
C3013       C  0.66132585  0.18073129  0.66319739    -0.07300
C3014       C  0.67992743  0.19307405  0.63986430    -0.18500
C3015       C  0.70601325  0.20952077  0.64678499     0.09900
C3016       C  0.71383375  0.21400232  0.67776159    -0.07300
C3017       C  0.69520259  0.20270671  0.70115759    -0.18500
C3018       C  0.66903899  0.18631000  0.69424022     0.09900
S3019       S  0.72857712  0.22251257  0.61510608    -0.33500
S3020       S  0.64657948  0.17288515  0.72590495    -0.33500
H3021       H  0.62542306  0.17121325  0.70992763     0.27900
H3022       H  0.74788193  0.24422285  0.63065641     0.27900
H3023       H  0.67436427  0.18872915  0.61594864     0.18500
H3024       H  0.70122227  0.20599402  0.72500479     0.18500
C3025       C  0.84781981  0.31120636  0.77168854    -0.07300
C3026       C  0.86693550  0.33681048  0.76498233    -0.18500
C3027       C  0.87720668  0.35554979  0.78813252     0.09900
C3028       C  0.86827440  0.34859882  0.81855743    -0.07300
C3029       C  0.85131129  0.32257393  0.82577916    -0.18500
C3030       C  0.84123552  0.30373151  0.80278504     0.09900
S3031       S  0.89967391  0.38840105  0.77709032    -0.33500
S3032       S  0.81924431  0.27083808  0.81455408    -0.33500
H3033       H  0.82556935  0.25943154  0.79027138     0.27900
H3034       H  0.91176894  0.39584118  0.80587470     0.27900
H3035       H  0.87249463  0.34276894  0.74132360     0.18500
H3036       H  0.84454808  0.31716826  0.84925654     0.18500
C3037       C  0.79493793  0.22780935  0.53428684    -0.07300
C3038       C  0.80387555  0.25262235  0.54620654    -0.18500
C3039       C  0.80921124  0.25775715  0.57741599     0.09900
C3040       C  0.80519754  0.23753518  0.59753767    -0.07300
C3041       C  0.79831698  0.21317327  0.58520872    -0.18500
C3042       C  0.79402000  0.20838415  0.55359455     0.09900
S3043       S  0.81814915  0.28965361  0.59056610    -0.33500
S3044       S  0.78605957  0.17686792  0.53957936    -0.33500
H3045       H  0.80206767  0.18633517  0.51349369     0.27900
H3046       H  0.79872877  0.27990251  0.61319347     0.27900
H3047       H  0.80520769  0.26775571  0.53138285     0.18500
H3048       H  0.79599142  0.19772686  0.60034468     0.18500
C3049       C  0.76712010  0.20810095  0.78487747    -0.07300
C3050       C  0.74945566  0.21212263  0.80206219    -0.18500
C3051       C  0.74631902  0.20764268  0.83363466     0.09900
C3052       C  0.76008265  0.19755250  0.84866991    -0.07300
C3053       C  0.77663435  0.19201691  0.83159382    -0.18500
C3054       C  0.78050685  0.19734844  0.79996604     0.09900
S3055       S  0.72488245  0.21595421  0.85334266    -0.33500
S3056       S  0.80368299  0.19123940  0.78099156    -0.33500
H3057       H  0.81826856  0.21657930  0.76958451     0.27900
H3058       H  0.73772134  0.22287499  0.88169903     0.27900
H3059       H  0.73872316  0.22006047  0.79113337     0.18500
H3060       H  0.78749170  0.18458846  0.84312943     0.18500
C3061       C  0.87231110  0.05282390  0.72557986    -0.07300
C3062       C  0.84794170  0.03852341  0.71192104    -0.18500
C3063       C  0.83071540  0.01299324  0.72016340     0.09900
C3064       C  0.83763038  0.00069896  0.74291541    -0.07300
C3065       C  0.86280514  0.01421550  0.75504920    -0.18500
C3066       C  0.88009299  0.04022956  0.74695279     0.09900
S3067       S  0.79991133  0.99768939  0.70104649    -0.33500
S3068       S  0.91068737  0.05658936  0.76647138    -0.33500
H3069       H  0.91149302  0.08037321  0.76978189     0.27900
H3070       H  0.79743013  0.97314899  0.70105045     0.27900
H3071       H  0.84184991  0.04758804  0.69497243     0.18500
H3072       H  0.86836470  0.00517874  0.77268379     0.18500
C3073       C  0.88703264  0.19904822  0.70662527    -0.07300
C3074       C  0.89132752  0.21934928  0.72658832    -0.18500
C3075       C  0.87731369  0.23240262  0.72354393     0.09900
C3076       C  0.85859873  0.22491168  0.69999348    -0.07300
C3077       C  0.85567978  0.20573785  0.67910695    -0.18500
C3078       C  0.86982347  0.19314890  0.68185168     0.09900
S3079       S  0.88321929  0.25713049  0.75144190    -0.33500
S3080       S  0.86493469  0.16963676  0.65279603    -0.33500
H3081       H  0.89045912  0.17456710  0.65358299     0.27900
H3082       H  0.85776538  0.25220847  0.75315543     0.27900
H3083       H  0.90448953  0.22400888  0.74569417     0.18500
H3084       H  0.84203249  0.20034673  0.66037616     0.18500
C3085       C  0.88839318  0.11315964  0.87085436    -0.07300
C3086       C  0.89671843  0.13951272  0.86532301    -0.18500
C3087       C  0.90040206  0.14944341  0.83533670     0.09900
C3088       C  0.89567015  0.13266271  0.81039736    -0.07300
C3089       C  0.88792267  0.10665735  0.81585944    -0.18500
C3090       C  0.88413894  0.09667002  0.84539547     0.09900
S3091       S  0.90982237  0.18296646  0.82920812    -0.33500
S3092       S  0.87358960  0.06265642  0.84807399    -0.33500
H3093       H  0.85053180  0.05686314  0.86307040     0.27900
H3094       H  0.90948492  0.18936669  0.86028069     0.27900
H3095       H  0.90009389  0.15237144  0.88452130     0.18500
H3096       H  0.88456884  0.09372192  0.79669200     0.18500
C3097       C  0.87583094  0.11513541  0.62275997    -0.07300
C3098       C  0.89444145  0.12845202  0.60011745    -0.18500
C3099       C  0.88803840  0.12509752  0.56903346     0.09900
C3100       C  0.86241206  0.10706667  0.56040040    -0.07300
C3101       C  0.84351578  0.09449556  0.58324639    -0.18500
C3102       C  0.84989783  0.09856144  0.61442467     0.09900
S3103       S  0.91327219  0.14302851  0.54117222    -0.33500
S3104       S  0.82438692  0.08118979  0.64204816    -0.33500
H3105       H  0.83977335  0.07943725  0.66500971     0.27900
H3106       H  0.93413347  0.15444590  0.56172978     0.27900
H3107       H  0.91423552  0.14123085  0.60699115     0.18500
H3108       H  0.82379829  0.08085601  0.57671834     0.18500
C3109       C  0.02013777  0.21489436  0.60405858    -0.07300
C3110       C  0.99570604  0.21188844  0.59865932    -0.18500
C3111       C  0.97652731  0.20175173  0.62152166     0.09900
C3112       C  0.98191407  0.19429687  0.65005434    -0.07300
C3113       C  0.00696766  0.19959588  0.65633079    -0.18500
C3114       C  0.02612727  0.20994414  0.63374992     0.09900
S3115       S  0.94538545  0.19776105  0.61266714    -0.33500
S3116       S  0.05739726  0.21483273  0.64363667    -0.33500
H3117       H  0.07103858  0.23472905  0.62209342     0.27900
H3118       H  0.93772059  0.19750045  0.64332394     0.27900
H3119       H  0.99096062  0.21566025  0.57593440     0.18500
H3120       H  0.01122767  0.19412164  0.67837520     0.18500
C3121       C  0.82772273  0.95164850  0.52770164    -0.07300
C3122       C  0.82144754  0.96778125  0.54462418    -0.18500
C3123       C  0.83142502  0.99378454  0.53690727     0.09900
C3124       C  0.84735147  0.00409517  0.51070678    -0.07300
C3125       C  0.85652054  0.98951732  0.99540559    -0.18500
C3126       C  0.84666416  0.96339220  0.00349108     0.09900
S3127       S  0.82261590  0.01272968  0.56103722    -0.33500
S3128       S  0.85794197  0.94525600  0.98172489    -0.33500
H3129       H  0.83482025  0.92143842  0.98233530     0.27900
H3130       H  0.84535142  0.03642008  0.55537865     0.27900
H3131       H  0.80796546  0.95982618  0.56367692     0.18500
H3132       H  0.86954808  0.99741345  0.97592721     0.18500
C3133       C  0.77449403  0.88797923  0.87761849    -0.07300
C3134       C  0.75352377  0.86355089  0.88560844    -0.18500
C3135       C  0.74940523  0.85471099  0.91611974     0.09900
C3136       C  0.76583702  0.87108156  0.93940476    -0.07300
C3137       C  0.78680941  0.89515543  0.93140873    -0.18500
C3138       C  0.79192346  0.90340677  0.90105483     0.09900
S3139       S  0.72201179  0.82337138  0.92419745    -0.33500
S3140       S  0.82157724  0.93349342  0.89451671    -0.33500
H3141       H  0.82938236  0.92357274  0.86997872     0.27900
H3142       H  0.73695860  0.81381831  0.93740461     0.27900
H3143       H  0.74004791  0.85135253  0.86811618     0.18500
H3144       H  0.79983592  0.90756571  0.94910001     0.18500
C3145       C  0.76470142  0.89366395  0.62761348    -0.07300
C3146       C  0.74125506  0.87676452  0.64240333    -0.18500
C3147       C  0.73659756  0.88122507  0.67281878     0.09900
C3148       C  0.75595136  0.90279859  0.68883817    -0.07300
C3149       C  0.77906751  0.91975348  0.67376855    -0.18500
C3150       C  0.78349236  0.91583606  0.64332427     0.09900
S3151       S  0.70576000  0.85895471  0.68973488    -0.33500
S3152       S  0.81326862  0.93963903  0.62510843    -0.33500
H3153       H  0.82037099  0.95919035  0.64733484     0.27900
H3154       H  0.70444713  0.87746349  0.70846392     0.27900
H3155       H  0.72671878  0.85977525  0.63042574     0.18500
H3156       H  0.79432007  0.93564074  0.68635986     0.18500
C3157       C  0.48230433  0.82209859  0.56858902    -0.07300
C3158       C  0.46876220  0.79571733  0.57694927    -0.18500
C3159       C  0.47703624  0.77854637  0.56696516     0.09900
C3160       C  0.50008887  0.78821296  0.54958027    -0.07300
C3161       C  0.51171542  0.81372352  0.53864558    -0.18500
C3162       C  0.50297607  0.83045406  0.54733711     0.09900
S3163       S  0.45838322  0.74519456  0.57858956    -0.33500
S3164       S  0.52000396  0.86254702  0.53106086    -0.33500
H3165       H  0.49820697  0.86530367  0.53019466     0.27900
H3166       H  0.45852735  0.73553730  0.54912671     0.27900
H3167       H  0.45247237  0.78869909  0.59256635     0.18500
H3168       H  0.52860472  0.82113199  0.52389591     0.18500
C3169       C  0.63563980  0.78072610  0.54641598    -0.07300
C3170       C  0.64652523  0.80177030  0.52608882    -0.18500
C3171       C  0.67285803  0.81499921  0.51924073     0.09900
C3172       C  0.68954182  0.80809269  0.53417562    -0.07300
C3173       C  0.67849764  0.78606810  0.55332018    -0.18500
C3174       C  0.65174489  0.77230902  0.55954279     0.09900
S3175       S  0.68428348  0.84073495  0.99179438    -0.33500
S3176       S  0.63965647  0.74524510  0.58564274    -0.33500
H3177       H  0.62073537  0.74935524  0.59936456     0.27900
H3178       H  0.70368428  0.83694534  0.97904827     0.27900
H3179       H  0.63423426  0.80785030  0.51505685     0.18500
H3180       H  0.69087804  0.78030159  0.56469912     0.18500
C3181       C  0.55564827  0.76462695  0.64607271    -0.07300
C3182       C  0.57343545  0.76608079  0.66793639    -0.18500
C3183       C  0.57068144  0.77031637  0.69911903     0.09900
C3184       C  0.54907603  0.77222771  0.70893802    -0.07300
C3185       C  0.53092817  0.76978008  0.68681214    -0.18500
C3186       C  0.53390693  0.76596949  0.65585145     0.09900
S3187       S  0.59623440  0.77471302  0.72444556    -0.33500
S3188       S  0.50884876  0.76246786  0.63013435    -0.33500
H3189       H  0.50995796  0.74420287  0.61070700     0.27900
H3190       H  0.60073617  0.79893158  0.73485180     0.27900
H3191       H  0.59022202  0.76513766  0.66046875     0.18500
H3192       H  0.51404123  0.77081451  0.69356198     0.18500
C3193       C  0.57322810  0.81063373  0.89792023    -0.07300
C3194       C  0.58012072  0.79210673  0.90598835    -0.18500
C3195       C  0.58026979  0.78532699  0.93663887     0.09900
C3196       C  0.57189746  0.79606435  0.95956462    -0.07300
C3197       C  0.56746559  0.81627711  0.95213793    -0.18500
C3198       C  0.56935119  0.82456963  0.92168600     0.09900
S3199       S  0.59008437  0.76198418  0.94487893    -0.33500
S3200       S  0.56760880  0.85340366  0.91501349    -0.33500
H3201       H  0.58541115  0.86220217  0.89048333     0.27900
H3202       H  0.59784700  0.76972550  0.97534297     0.27900
H3203       H  0.58448734  0.78204508  0.88834585     0.18500
H3204       H  0.56213346  0.82534667  0.97007576     0.18500
C3205       C  0.51967685  0.64511404  0.93559061    -0.07300
C3206       C  0.51600069  0.63835645  0.96683768    -0.18500
C3207       C  0.52559605  0.65731690  0.98987816     0.09900
C3208       C  0.53799026  0.68372978  0.98135243    -0.07300
C3209       C  0.54321200  0.69036968  0.95019430    -0.18500
C3210       C  0.53522143  0.67146130  0.92739314     0.09900
S3211       S  0.52243764  0.64679429  0.53135605    -0.33500
S3212       S  0.54316836  0.68248772  0.88821010    -0.33500
H3213       H  0.55297666  0.66601588  0.88146494     0.27900
H3214       H  0.51032239  0.61995926  0.52614368     0.27900
H3215       H  0.50418093  0.61822554  0.97314594     0.18500
H3216       H  0.55266699  0.71043849  0.94337533     0.18500
C3217       C  0.48300583  0.66494951  0.83835127    -0.07300
C3218       C  0.49018281  0.68383725  0.86144560    -0.18500
C3219       C  0.50001846  0.71000784  0.85424276     0.09900
C3220       C  0.50176305  0.71758386  0.82317306    -0.07300
C3221       C  0.49314866  0.69855510  0.80012020    -0.18500
C3222       C  0.48426048  0.67241618  0.80731799     0.09900
S3223       S  0.51082640  0.73281485  0.88570223    -0.33500
S3224       S  0.47458910  0.64883409  0.77683946    -0.33500
H3225       H  0.48059277  0.66620818  0.75219504     0.27900
H3226       H  0.50671797  0.75141921  0.87107903     0.27900
H3227       H  0.48941369  0.67837524  0.88536244     0.18500
H3228       H  0.49467749  0.70446006  0.77630752     0.18500
C3229       C  0.54519086  0.52152809  0.88008884    -0.07300
C3230       C  0.52059495  0.50772834  0.86698127    -0.18500
C3231       C  0.50624702  0.51950301  0.85980215     0.09900
C3232       C  0.51606982  0.54609338  0.86686302    -0.07300
C3233       C  0.54079556  0.55999162  0.88015572    -0.18500
C3234       C  0.55530059  0.54801783  0.88698681     0.09900
S3235       S  0.47579101  0.49892408  0.84115580    -0.33500
S3236       S  0.58567027  0.56710993  0.90628378    -0.33500
H3237       H  0.58221727  0.54720835  0.92648176     0.27900
H3238       H  0.48087176  0.51641600  0.81694538     0.27900
H3239       H  0.51252729  0.48740176  0.86152069     0.18500
H3240       H  0.54862766  0.58016063  0.88619120     0.18500
C3241       C  0.64813987  0.53078516  0.82044976    -0.07300
C3242       C  0.63981672  0.53014152  0.79023780    -0.18500
C3243       C  0.65747517  0.53986371  0.76596685     0.09900
C3244       C  0.68387922  0.54950696  0.77205618    -0.07300
C3245       C  0.69239280  0.55289241  0.80262745    -0.18500
C3246       C  0.67473055  0.54362208  0.82702127     0.09900
S3247       S  0.64474529  0.53559018  0.72759355    -0.33500
S3248       S  0.68611484  0.54476857  0.86576366    -0.33500
H3249       H  0.71257073  0.55677067  0.85862857     0.27900
H3250       H  0.66253505  0.56108086  0.71851520     0.27900
H3251       H  0.61933279  0.52026130  0.78529471     0.18500
H3252       H  0.71272119  0.56056230  0.80712021     0.18500
C3253       C  0.80672550  0.79088634  0.64751912    -0.07300
C3254       C  0.78919114  0.79896577  0.65578582    -0.18500
C3255       C  0.77898567  0.80819599  0.63360668     0.09900
C3256       C  0.78559266  0.80830252  0.60242862    -0.07300
C3257       C  0.80008946  0.79685996  0.59379376    -0.18500
C3258       C  0.81119400  0.78861618  0.61603843     0.09900
S3259       S  0.75955086  0.82164966  0.64664643    -0.33500
S3260       S  0.83229290  0.77691250  0.60387347    -0.33500
H3261       H  0.83006307  0.77914372  0.57197712     0.27900
H3262       H  0.74699509  0.81902942  0.61847490     0.27900
H3263       H  0.78540526  0.80054627  0.67985566     0.18500
H3264       H  0.80500565  0.79697872  0.56976714     0.18500
C3265       C  0.80642556  0.69729052  0.71325535    -0.07300
C3266       C  0.81714284  0.68632116  0.69396444    -0.18500
C3267       C  0.80393086  0.65993902  0.68711260     0.09900
C3268       C  0.77992312  0.64335092  0.70149454    -0.07300
C3269       C  0.76869707  0.65436855  0.72007633    -0.18500
C3270       C  0.78173922  0.68110592  0.72619884     0.09900
S3271       S  0.81856344  0.64892920  0.65905385    -0.33500
S3272       S  0.76696622  0.69297986  0.75277637    -0.33500
H3273       H  0.79004306  0.71028561  0.76783958     0.27900
H3274       H  0.79504864  0.63019344  0.64598800     0.27900
H3275       H  0.83603046  0.69850293  0.68389298     0.18500
H3276       H  0.75034929  0.64194170  0.73126806     0.18500
C3277       C  0.83844225  0.84788899  0.74772928    -0.07300
C3278       C  0.83511743  0.85141182  0.77903396    -0.18500
C3279       C  0.82614007  0.86807521  0.78843156     0.09900
C3280       C  0.82000398  0.88124331  0.76610666    -0.07300
C3281       C  0.82357699  0.87806067  0.73495982    -0.18500
C3282       C  0.83291997  0.86181172  0.72544374     0.09900
S3283       S  0.82070492  0.87099497  0.82877801    -0.33500
S3284       S  0.83569205  0.85774305  0.68461955    -0.33500
H3285       H  0.82628563  0.87371492  0.67414218     0.27900
H3286       H  0.82953434  0.85470890  0.83985730     0.27900
H3287       H  0.83907278  0.84066628  0.79607305     0.18500
H3288       H  0.81825463  0.88782972  0.71803669     0.18500
C3289       C  0.84475305  0.85339542  0.00141982    -0.07300
C3290       C  0.85905813  0.84703317  0.52379886    -0.18500
C3291       C  0.87671825  0.83946150  0.51466043     0.09900
C3292       C  0.87960867  0.83737996  0.98183071    -0.07300
C3293       C  0.86569451  0.84295771  0.96026922    -0.18500
C3294       C  0.84850447  0.85117249  0.96966850     0.09900
S3295       S  0.89293952  0.83200178  0.54433079    -0.33500
S3296       S  0.83167972  0.85805983  0.94020947    -0.33500
H3297       H  0.83009108  0.87739255  0.95694670     0.27900
H3298       H  0.91496490  0.83808488  0.52666054     0.27900
H3299       H  0.85561338  0.84778807  0.54817833     0.18500
H3300       H  0.86746773  0.83991232  0.93604821     0.18500
C3301       C  0.90262769  0.77333666  0.56918384    -0.07300
C3302       C  0.87931090  0.75442930  0.58234963    -0.18500
C3303       C  0.87479348  0.75439472  0.61407589     0.09900
C3304       C  0.89346468  0.77453702  0.63249587    -0.07300
C3305       C  0.91719174  0.79250864  0.61958292    -0.18500
C3306       C  0.92205620  0.79183305  0.58837386     0.09900
S3307       S  0.84454163  0.72976081  0.63022431    -0.33500
S3308       S  0.95285309  0.81615958  0.57424222    -0.33500
H3309       H  0.94246388  0.82239007  0.54895254     0.27900
H3310       H  0.83536085  0.71439480  0.60362448     0.27900
H3311       H  0.86454437  0.73998113  0.56766563     0.18500
H3312       H  0.93169959  0.80783846  0.63373910     0.18500
C3313       C  0.86710963  0.76698527  0.88213628    -0.07300
C3314       C  0.87382672  0.75239775  0.86303629    -0.18500
C3315       C  0.86826334  0.75007499  0.83159134     0.09900
C3316       C  0.85601835  0.76293183  0.81889630    -0.07300
C3317       C  0.84739761  0.77565592  0.83855562    -0.18500
C3318       C  0.85283501  0.77781491  0.87000623     0.09900
S3319       S  0.87789856  0.73108120  0.80883183    -0.33500
S3320       S  0.84237004  0.79587288  0.89319990    -0.33500
H3321       H  0.84184956  0.78394791  0.92127289     0.27900
H3322       H  0.85740636  0.72242179  0.78782199     0.27900
H3323       H  0.88480906  0.74405591  0.87230455     0.18500
H3324       H  0.83769824  0.78528525  0.82912164     0.18500
C3325       C  0.71680353  0.51429759  0.94126435    -0.07300
C3326       C  0.70397579  0.49047650  0.92582352    -0.18500
C3327       C  0.67776181  0.47939562  0.91739335     0.09900
C3328       C  0.66419457  0.49262348  0.92432870    -0.07300
C3329       C  0.67672324  0.51532537  0.94199899    -0.18500
C3330       C  0.70247017  0.52599390  0.95071316     0.09900
S3331       S  0.66202560  0.44842703  0.89812695    -0.33500
S3332       S  0.71598411  0.55461561  0.97432515    -0.33500
H3333       H  0.72856363  0.54585679  0.99398926     0.27900
H3334       H  0.68254285  0.44345025  0.90039439     0.27900
H3335       H  0.71475425  0.48108564  0.91942604     0.18500
H3336       H  0.66671214  0.52555025  0.94826480     0.18500
C3337       C  0.85998757  0.64749432  0.96276004    -0.07300
C3338       C  0.85382545  0.65832934  0.98771788    -0.18500
C3339       C  0.86766430  0.68478221  0.99389622     0.09900
C3340       C  0.88797142  0.70158197  0.97413639    -0.07300
C3341       C  0.89544829  0.69088258  0.95024914    -0.18500
C3342       C  0.88165482  0.66410962  0.94422713     0.09900
S3343       S  0.86110347  0.69460971  0.52884658    -0.33500
S3344       S  0.89175016  0.65296240  0.91139743    -0.33500
H3345       H  0.86678850  0.63831663  0.89925094     0.27900
H3346       H  0.88624673  0.71526648  0.53410425     0.27900
H3347       H  0.83799750  0.64611387  0.00276612     0.18500
H3348       H  0.91103797  0.70359192  0.93497267     0.18500
C3349       C  0.81762348  0.49359660  0.91243656    -0.07300
C3350       C  0.80549444  0.46864901  0.92554104    -0.18500
C3351       C  0.81307295  0.45056272  0.91758582     0.09900
C3352       C  0.83375083  0.45781023  0.89676188    -0.07300
C3353       C  0.84483151  0.48213640  0.88257966    -0.18500
C3354       C  0.83645442  0.49961009  0.88928922     0.09900
S3355       S  0.79693207  0.41952966  0.93652175    -0.33500
S3356       S  0.85065460  0.52930762  0.86747535    -0.33500
H3357       H  0.82826526  0.53131770  0.86781245     0.27900
H3358       H  0.80236804  0.40594279  0.91420006     0.27900
H3359       H  0.79095751  0.46364278  0.94323585     0.18500
H3360       H  0.86059933  0.48781334  0.86644778     0.18500
C3361       C  0.78488257  0.56552502  0.79721132    -0.07300
C3362       C  0.79796917  0.59108141  0.80843429    -0.18500
C3363       C  0.80679184  0.59654606  0.83883328     0.09900
C3364       C  0.80318493  0.57597193  0.85807258    -0.07300
C3365       C  0.79074429  0.55068068  0.84680306    -0.18500
C3366       C  0.78126090  0.54499342  0.81694237     0.09900
S3367       S  0.82293754  0.63007429  0.85063917    -0.33500
S3368       S  0.76457247  0.51124885  0.80538326    -0.33500
H3369       H  0.76828905  0.50066516  0.83243824     0.27900
H3370       H  0.82402448  0.62677453  0.88232885     0.27900
H3371       H  0.80075224  0.60690003  0.79368221     0.18500
H3372       H  0.78776938  0.53508337  0.86207861     0.18500
C3373       C  0.77439356  0.56182940  0.54563741    -0.07300
C3374       C  0.77329953  0.54379484  0.56718560    -0.18500
C3375       C  0.76880369  0.54559941  0.59809339     0.09900
C3376       C  0.76533181  0.56597629  0.60839422    -0.07300
C3377       C  0.76584235  0.58386836  0.58724326    -0.18500
C3378       C  0.77078409  0.58234961  0.55605562     0.09900
S3379       S  0.76677000  0.52053570  0.62291335    -0.33500
S3380       S  0.77295307  0.60762025  0.53151693    -0.33500
H3381       H  0.79787272  0.61461244  0.52123984     0.27900
H3382       H  0.74628431  0.51859796  0.64085400     0.27900
H3383       H  0.77583821  0.52782230  0.56006489     0.18500
H3384       H  0.76325405  0.59961506  0.59524838     0.18500
C3385       C  0.15720658  0.55175672  0.60128912    -0.07300
C3386       C  0.15500324  0.54456183  0.57022431    -0.18500
C3387       C  0.16585944  0.53024934  0.55905761     0.09900
C3388       C  0.17800309  0.52143477  0.57947261    -0.07300
C3389       C  0.18252793  0.53064489  0.60975906    -0.18500
C3390       C  0.17254729  0.54596355  0.62086622     0.09900
S3391       S  0.16377739  0.52399833  0.51842919    -0.33500
S3392       S  0.17925534  0.55623098  0.66038246    -0.33500
H3393       H  0.15421617  0.55079719  0.66743433     0.27900
H3394       H  0.18827403  0.52634324  0.51640602     0.27900
H3395       H  0.14450450  0.54995052  0.55447859     0.18500
H3396       H  0.19288386  0.52498826  0.62523625     0.18500
C3397       C  0.09059222  0.57411623  0.52352690    -0.07300
C3398       C  0.11150693  0.59240303  0.50617550    -0.18500
C3399       C  0.11650986  0.58578344  0.97380232     0.09900
C3400       C  0.09706968  0.56300203  0.95960927    -0.07300
C3401       C  0.07437771  0.54675734  0.97615183    -0.18500
C3402       C  0.07176540  0.55108482  0.50909673     0.09900
S3403       S  0.14545849  0.60954009  0.95444892    -0.33500
S3404       S  0.04261985  0.52743976  0.52822713    -0.33500
H3405       H  0.04004651  0.54555649  0.54635014     0.27900
H3406       H  0.13316769  0.60665205  0.92622685     0.27900
H3407       H  0.12558974  0.61034552  0.51668222     0.18500
H3408       H  0.05912144  0.52948815  0.96536041     0.18500
C3409       C  0.08561087  0.53028167  0.77303220    -0.07300
C3410       C  0.09454874  0.51832472  0.75247759    -0.18500
C3411       C  0.09938983  0.52585082  0.72153666     0.09900
C3412       C  0.09615996  0.54647326  0.71125497    -0.07300
C3413       C  0.08554136  0.55700074  0.73122857    -0.18500
C3414       C  0.07946453  0.54867024  0.76155077     0.09900
S3415       S  0.11192915  0.51019037  0.69745029    -0.33500
S3416       S  0.06408328  0.56242938  0.78427844    -0.33500
H3417       H  0.04917016  0.53992618  0.80188678     0.27900
H3418       H  0.09585978  0.50686618  0.67238824     0.27900
H3419       H  0.09906864  0.50395308  0.76085920     0.18500
H3420       H  0.08210984  0.57215491  0.72304154     0.18500
C3421       C  0.81550944  0.33480889  0.67051701    -0.07300
C3422       C  0.83228073  0.35409018  0.69083010    -0.18500
C3423       C  0.84222585  0.38026934  0.68431662     0.09900
C3424       C  0.83596841  0.38768746  0.65621826    -0.07300
C3425       C  0.81775512  0.36830435  0.63676946    -0.18500
C3426       C  0.80715491  0.34191885  0.64388022     0.09900
S3427       S  0.86269888  0.40311813  0.71301815    -0.33500
S3428       S  0.78295320  0.31856612  0.61848728    -0.33500
H3429       H  0.77181097  0.29811030  0.63981100     0.27900
H3430       H  0.85474649  0.42121564  0.70716337     0.27900
H3431       H  0.83808226  0.34867829  0.71183634     0.18500
H3432       H  0.81235169  0.37369260  0.61546703     0.18500
C3433       C  0.87353647  0.52750909  0.56594092    -0.07300
C3434       C  0.86365282  0.54388849  0.57217834    -0.18500
C3435       C  0.85532967  0.55358286  0.54830977     0.09900
C3436       C  0.85686208  0.54658219  0.51771978    -0.07300
C3437       C  0.86866754  0.53195295  0.51138298    -0.18500
C3438       C  0.87716748  0.52245499  0.53519721     0.09900
S3439       S  0.84049367  0.57240825  0.55855309    -0.33500
S3440       S  0.89043136  0.50221714  0.52504853    -0.33500
H3441       H  0.90429166  0.50619420  0.55243132     0.27900
H3442       H  0.84416302  0.58487727  0.53005127     0.27900
H3443       H  0.86059477  0.54753540  0.59581732     0.18500
H3444       H  0.87342807  0.53065217  0.98854965     0.18500
C3445       C  0.89826038  0.47446388  0.73215372    -0.07300
C3446       C  0.88102613  0.47792451  0.75093407    -0.18500
C3447       C  0.87549091  0.46840062  0.78102882     0.09900
C3448       C  0.88774909  0.45548306  0.79307586    -0.07300
C3449       C  0.90557872  0.45283381  0.77494987    -0.18500
C3450       C  0.91152437  0.46269425  0.74507849     0.09900
S3451       S  0.85168689  0.47231416  0.80202109    -0.33500
S3452       S  0.93615161  0.45944587  0.72512098    -0.33500
H3453       H  0.94748503  0.48428339  0.71201149     0.27900
H3454       H  0.84208635  0.44968512  0.81971380     0.27900
H3455       H  0.87058299  0.48681814  0.74165332     0.18500
H3456       H  0.91473067  0.44268554  0.78399315     0.18500
C3457       C  0.89073243  0.42840717  0.98141445    -0.07300
C3458       C  0.91317738  0.44409367  0.99824743    -0.18500
C3459       C  0.91177712  0.45114851  0.52907082     0.09900
C3460       C  0.88698545  0.44082900  0.54256365    -0.07300
C3461       C  0.86517209  0.42441490  0.52512111    -0.18500
C3462       C  0.86639168  0.41844014  0.99568498     0.09900
S3463       S  0.94109964  0.47278030  0.54907640    -0.33500
S3464       S  0.83631476  0.39853294  0.97598482    -0.33500
H3465       H  0.84442671  0.41074271  0.94723317     0.27900
H3466       H  0.93110531  0.48727936  0.56252315     0.27900
H3467       H  0.93187202  0.45183610  0.98722574     0.18500
H3468       H  0.84609556  0.41635666  0.53523394     0.18500
C3469       C  0.96860682  0.52949561  0.63172855    -0.07300
C3470       C  0.98318225  0.52910657  0.65656741    -0.18500
C3471       C  0.01011365  0.54249904  0.65544803     0.09900
C3472       C  0.02294752  0.55642487  0.62858993    -0.07300
C3473       C  0.00829422  0.55774250  0.60420369    -0.18500
C3474       C  0.98126045  0.54448233  0.60554315     0.09900
S3475       S  0.02682080  0.54098631  0.68908504    -0.33500
S3476       S  0.96404435  0.54663929  0.57282519    -0.33500
H3477       H  0.94217962  0.54280399  0.58926480     0.27900
H3478       H  0.04848995  0.56573925  0.68513862     0.27900
H3479       H  0.97345888  0.51789166  0.67686081     0.18500
H3480       H  0.01790903  0.56835516  0.58349319     0.18500
C3481       C  0.81494360  0.48519614  0.67507316    -0.07300
C3482       C  0.82368264  0.50353667  0.69881634    -0.18500
C3483       C  0.80843109  0.51303276  0.71070357     0.09900
C3484       C  0.78358016  0.50451760  0.69837650    -0.07300
C3485       C  0.77356510  0.48397626  0.67717822    -0.18500
C3486       C  0.78894974  0.47417657  0.66547235     0.09900
S3487       S  0.82249100  0.53674311  0.74099132    -0.33500
S3488       S  0.77524082  0.44965882  0.63624158    -0.33500
H3489       H  0.78243088  0.43332856  0.65108276     0.27900
H3490       H  0.79885905  0.52994604  0.75498923     0.27900
H3491       H  0.84317975  0.51146372  0.70742094     0.18500
H3492       H  0.75433962  0.47674466  0.66807609     0.18500
C3493       C  0.01161533  0.81008521  0.84661328    -0.07300
C3494       C  0.02034223  0.81369080  0.87696641    -0.18500
C3495       C  0.00299670  0.80495989  0.90160420     0.09900
C3496       C  0.97628590  0.79409884  0.89574360    -0.07300
C3497       C  0.96750481  0.78832522  0.86528685    -0.18500
C3498       C  0.98490695  0.79552524  0.84072034     0.09900
S3499       S  0.01656134  0.81124960  0.93968946    -0.33500
S3500       S  0.97190356  0.78757460  0.80239570    -0.33500
H3501       H  0.99305147  0.78694301  0.78938081     0.27900
H3502       H  0.00071857  0.78550813  0.94949981     0.27900
H3503       H  0.04081559  0.82483185  0.88157512     0.18500
H3504       H  0.94703916  0.77927929  0.86051674     0.18500
C3505       C  0.99604361  0.85819150  0.75594494    -0.07300
C3506       C  0.97665915  0.84481326  0.77791438    -0.18500
C3507       C  0.95067213  0.83515058  0.77094660     0.09900
C3508       C  0.94370955  0.83877516  0.74120716    -0.07300
C3509       C  0.96325934  0.85460632  0.72021428    -0.18500
C3510       C  0.98951747  0.86461301  0.72751710     0.09900
S3511       S  0.92715004  0.81696541  0.80036665    -0.33500
S3512       S  0.01443726  0.88455958  0.70034573    -0.33500
H3513       H  0.99802199  0.88625908  0.67860404     0.27900
H3514       H  0.90801021  0.82188237  0.78924751     0.27900
H3515       H  0.98175379  0.84076507  0.80028467     0.18500
H3516       H  0.95790927  0.85759855  0.69747120     0.18500
C3517       C  0.13558486  0.78632670  0.79555310    -0.07300
C3518       C  0.13957980  0.79998052  0.76783798    -0.18500
C3519       C  0.12591923  0.81276970  0.76114906     0.09900
C3520       C  0.10792847  0.81209572  0.78258011    -0.07300
C3521       C  0.10343787  0.79810915  0.80997922    -0.18500
C3522       C  0.11686762  0.78505721  0.81656724     0.09900
S3523       S  0.13206809  0.83067433  0.72565230    -0.33500
S3524       S  0.11114824  0.76932332  0.85335935    -0.33500
H3525       H  0.10224456  0.74473291  0.84028794     0.27900
H3526       H  0.15119701  0.82577656  0.71424332     0.27900
H3527       H  0.15378525  0.80095368  0.75159100     0.18500
H3528       H  0.08997681  0.79801979  0.82675734     0.18500
C3529       C  0.17191062  0.67084477  0.84180635    -0.07300
C3530       C  0.18466733  0.65783650  0.83123318    -0.18500
C3531       C  0.17528116  0.63143224  0.83829737     0.09900
C3532       C  0.15267890  0.61763389  0.85643325    -0.07300
C3533       C  0.14102277  0.63125312  0.86807700    -0.18500
C3534       C  0.15053380  0.65733179  0.86183428     0.09900
S3535       S  0.19169641  0.61609628  0.82153114    -0.33500
S3536       S  0.13396828  0.67185818  0.88047349    -0.33500
H3537       H  0.15646773  0.69577085  0.88454340     0.27900
H3538       H  0.16896276  0.59348106  0.81280512     0.27900
H3539       H  0.20100767  0.66773397  0.81580148     0.18500
H3540       H  0.12385314  0.62141558  0.88224975     0.18500
C3541       C  0.13784734  0.69376266  0.73324146    -0.07300
C3542       C  0.11646121  0.66918990  0.73894235    -0.18500
C3543       C  0.10672069  0.65024290  0.71583832     0.09900
C3544       C  0.11893358  0.65594517  0.68676940    -0.07300
C3545       C  0.13852037  0.68126200  0.68033057    -0.18500
C3546       C  0.14783208  0.70026114  0.70308440     0.09900
S3547       S  0.08040348  0.61868688  0.72563677    -0.33500
S3548       S  0.17355425  0.73202769  0.69274390    -0.33500
H3549       H  0.16768560  0.74506444  0.71548608     0.27900
H3550       H  0.07079690  0.61208515  0.69558763     0.27900
H3551       H  0.10861467  0.66409711  0.76203768     0.18500
H3552       H  0.14769282  0.68587291  0.65786863     0.18500
C3553       C  0.17970626  0.66827641  0.59175623    -0.07300
C3554       C  0.19178305  0.68823312  0.61337164    -0.18500
C3555       C  0.20886303  0.71373094  0.60411397     0.09900
C3556       C  0.21366611  0.71964833  0.57252156    -0.07300
C3557       C  0.20323702  0.69936659  0.55111019    -0.18500
C3558       C  0.18662218  0.67371591  0.56046304     0.09900
S3559       S  0.22270135  0.73808198  0.63355982    -0.33500
S3560       S  0.17438908  0.64906065  0.53133824    -0.33500
H3561       H  0.16816294  0.62811987  0.55115758     0.27900
H3562       H  0.24444414  0.75565696  0.61643315     0.27900
H3563       H  0.18692039  0.68415166  0.63753427     0.18500
H3564       H  0.20716820  0.70364755  0.52686035     0.18500
C3565       C  0.32947000  0.82214495  0.58117000    -0.07300
C3566       C  0.34874531  0.83253288  0.55839998    -0.18500
C3567       C  0.37463444  0.84144835  0.56537482     0.09900
C3568       C  0.38174466  0.83982977  0.59584433    -0.07300
C3569       C  0.36236555  0.82829683  0.61842924    -0.18500
C3570       C  0.33635823  0.81948987  0.61142081     0.09900
S3571       S  0.39779322  0.85526875  0.53446344    -0.33500
S3572       S  0.31299072  0.80506677  0.64188837    -0.33500
H3573       H  0.29267546  0.78804233  0.62267142     0.27900
H3574       H  0.41535320  0.84854469  0.54661767     0.27900
H3575       H  0.34371688  0.83456445  0.53505849     0.18500
H3576       H  0.36764353  0.82710242  0.64192683     0.18500
C3577       C  0.23219649  0.80569560  0.65186349    -0.07300
C3578       C  0.24753396  0.79721245  0.66604854    -0.18500
C3579       C  0.24439758  0.79029762  0.69709602     0.09900
C3580       C  0.22549905  0.79205521  0.71468900    -0.07300
C3581       C  0.21116501  0.80211913  0.70097824    -0.18500
C3582       C  0.21425522  0.80887358  0.66967569     0.09900
S3583       S  0.26474358  0.77884409  0.71261176    -0.33500
S3584       S  0.19412190  0.82037456  0.65366210    -0.33500
H3585       H  0.21022173  0.83381542  0.62865085     0.27900
H3586       H  0.26516029  0.78736577  0.74284683     0.27900
H3587       H  0.26142026  0.79501258  0.65244856     0.18500
H3588       H  0.19659584  0.80350275  0.71431975     0.18500
C3589       C  0.18717895  0.76740928  0.90354119    -0.07300
C3590       C  0.18986947  0.74862099  0.91982900    -0.18500
C3591       C  0.19713970  0.75196695  0.95073422     0.09900
C3592       C  0.20280961  0.77507915  0.96601673    -0.07300
C3593       C  0.19902534  0.79347117  0.95034214    -0.18500
C3594       C  0.19112735  0.78982365  0.91942396     0.09900
S3595       S  0.19883452  0.72593789  0.96938604    -0.33500
S3596       S  0.18662945  0.81449954  0.90162276    -0.33500
H3597       H  0.16644806  0.79744000  0.88226747     0.27900
H3598       H  0.19103209  0.73000411  0.99841759     0.27900
H3599       H  0.18728633  0.73152157  0.90811758     0.18500
H3600       H  0.20312824  0.81122053  0.96189576     0.18500
C3601       C  0.99852794  0.85781170  0.49304334    -0.07300
C3602       C  0.00448379  0.86334848  0.52425815    -0.18500
C3603       C  0.02977215  0.87983327  0.53413443     0.09900
C3604       C  0.04997347  0.89074018  0.51235874    -0.07300
C3605       C  0.04396454  0.88713198  0.48100826    -0.18500
C3606       C  0.01777132  0.87171729  0.96844226     0.09900
S3607       S  0.03522242  0.88474145  0.57491392    -0.33500
S3608       S  0.01291586  0.86819809  0.92749922    -0.33500
H3609       H  0.99383400  0.87532444  0.92788092     0.27900
H3610       H  0.05736689  0.90936140  0.57263450     0.27900
H3611       H  0.98942495  0.85438707  0.54123603     0.18500
H3612       H  0.05940766  0.89555831  0.46413253     0.18500
C3613       C  0.21489448  0.85904177  0.54531496    -0.07300
C3614       C  0.19406885  0.84841500  0.52483562    -0.18500
C3615       C  0.18041298  0.86104192  0.51790388     0.09900
C3616       C  0.18684669  0.88468963  0.53277366    -0.07300
C3617       C  0.20836819  0.89582958  0.55246302    -0.18500
C3618       C  0.22233494  0.88325008  0.55897028     0.09900
S3619       S  0.15762194  0.84896526  0.98812430    -0.33500
S3620       S  0.24833780  0.89832437  0.58622108    -0.33500
H3621       H  0.24410781  0.87518488  0.59986401     0.27900
H3622       H  0.16334256  0.87261874  0.97443786     0.27900
H3623       H  0.18850150  0.83005643  0.51380606     0.18500
H3624       H  0.21373248  0.91395291  0.56391381     0.18500
C3625       C  0.13411480  0.90409642  0.93067479    -0.07300
C3626       C  0.11969597  0.87875383  0.91930792    -0.18500
C3627       C  0.11258190  0.87397113  0.88835796     0.09900
C3628       C  0.11904720  0.89486407  0.86818251    -0.07300
C3629       C  0.13459731  0.92021553  0.87891765    -0.18500
C3630       C  0.14251645  0.92505268  0.90977857     0.09900
S3631       S  0.09479131  0.84073213  0.87598264    -0.33500
S3632       S  0.16078986  0.95832532  0.92167809    -0.33500
H3633       H  0.18095725  0.95562247  0.93404140     0.27900
H3634       H  0.10475788  0.84580706  0.84594785     0.27900
H3635       H  0.11348848  0.86247609  0.93484652     0.18500
H3636       H  0.13952299  0.93636209  0.86357870     0.18500
C3637       C  0.08764700  0.86039123  0.67882892    -0.07300
C3638       C  0.11231868  0.86781671  0.66698354    -0.18500
C3639       C  0.11824322  0.87397775  0.63584432     0.09900
C3640       C  0.09983908  0.87473963  0.61645861    -0.07300
C3641       C  0.07482700  0.86569993  0.62753465    -0.18500
C3642       C  0.06820551  0.85750493  0.65797557     0.09900
S3643       S  0.15004641  0.88235896  0.62264592    -0.33500
S3644       S  0.03483875  0.84441055  0.66837515    -0.33500
H3645       H  0.03244029  0.82145577  0.68048140     0.27900
H3646       H  0.14108928  0.86552915  0.59727657     0.27900
H3647       H  0.12727241  0.86920802  0.68210942     0.18500
H3648       H  0.06031440  0.86506739  0.61230824     0.18500
C3649       C  0.54216760  0.16350642  0.64055496    -0.07300
C3650       C  0.51870035  0.15487091  0.62512536    -0.18500
C3651       C  0.50254567  0.16486642  0.63178939     0.09900
C3652       C  0.50873105  0.18253633  0.65645433    -0.07300
C3653       C  0.53351518  0.19324768  0.66954459    -0.18500
C3654       C  0.55061314  0.18463236  0.66100922     0.09900
S3655       S  0.47437638  0.15398573  0.60798706    -0.33500
S3656       S  0.58201929  0.20018636  0.67852241    -0.33500
H3657       H  0.59519485  0.20311672  0.65066949     0.27900
H3658       H  0.47528356  0.17799453  0.60829893     0.27900
H3659       H  0.51268808  0.13983517  0.60784762     0.18500
H3660       H  0.53930473  0.20768880  0.68749718     0.18500
C3661       C  0.18669383  0.98355365  0.60165207    -0.07300
C3662       C  0.20062714  0.00962901  0.59252426    -0.18500
C3663       C  0.20974224  0.02962582  0.61422453     0.09900
C3664       C  0.20502337  0.02345420  0.64582125    -0.07300
C3665       C  0.19336235  0.99746890  0.65499872    -0.18500
C3666       C  0.18379509  0.97747234  0.63328736     0.09900
S3667       S  0.22644018  0.06245041  0.60006161    -0.33500
S3668       S  0.16687602  0.94429127  0.64624865    -0.33500
H3669       H  0.16660124  0.94940640  0.67779118     0.27900
H3670       H  0.24085520  0.07352718  0.62688300     0.27900
H3671       H  0.20282590  0.01452443  0.56831481     0.18500
H3672       H  0.18995708  0.99275776  0.67923031     0.18500
C3673       C  0.35741257  0.14092017  0.70404577    -0.07300
C3674       C  0.34247810  0.14466173  0.68210765    -0.18500
C3675       C  0.31561964  0.13108872  0.68357125     0.09900
C3676       C  0.30303590  0.11368476  0.70797271    -0.07300
C3677       C  0.31773087  0.10879857  0.72917278    -0.18500
C3678       C  0.34485191  0.12238826  0.72758958     0.09900
S3679       S  0.29844174  0.13704527  0.65371812    -0.33500
S3680       S  0.36221924  0.11691269  0.75762175    -0.33500
H3681       H  0.38186184  0.14294843  0.76017043     0.27900
H3682       H  0.27639044  0.11223677  0.65481099     0.27900
H3683       H  0.35186082  0.15855598  0.66371715     0.18500
H3684       H  0.30814949  0.09566401  0.74818931     0.18500
C3685       C  0.15061740  0.00526894  0.74660575    -0.07300
C3686       C  0.13819107  0.98667839  0.72340578    -0.18500
C3687       C  0.12102300  0.96069747  0.73048822     0.09900
C3688       C  0.11599576  0.95280227  0.76158075    -0.07300
C3689       C  0.12694625  0.97164473  0.78480551    -0.18500
C3690       C  0.14431290  0.99779073  0.77763021     0.09900
S3691       S  0.10660020  0.93847636  0.69876809    -0.33500
S3692       S  0.15833340  0.02138248  0.80806866    -0.33500
H3693       H  0.14430287  0.00459845  0.83238751     0.27900
H3694       H  0.08369682  0.92122083  0.71438475     0.27900
H3695       H  0.14268983  0.99221409  0.69945922     0.18500
H3696       H  0.12304308  0.96560371  0.80862495     0.18500
C3697       C  0.44650867  0.83486346  0.85951631    -0.07300
C3698       C  0.46531317  0.83567911  0.87933770    -0.18500
C3699       C  0.48018513  0.82455926  0.87117945     0.09900
C3700       C  0.47739559  0.81347202  0.84183847    -0.07300
C3701       C  0.45734257  0.81090291  0.82277050    -0.18500
C3702       C  0.44171235  0.82130250  0.83134694     0.09900
S3703       S  0.50272523  0.82540704  0.89903176    -0.33500
S3704       S  0.41732547  0.81784006  0.80436768    -0.33500
H3705       H  0.41472718  0.83881736  0.81402790     0.27900
H3706       H  0.50404831  0.80421346  0.88704427     0.27900
H3707       H  0.46891675  0.84566006  0.90113153     0.18500
H3708       H  0.45505754  0.80244465  0.80012101     0.18500
C3709       C  0.43416878  0.89841471  0.77272638    -0.07300
C3710       C  0.44386432  0.88195438  0.76576000    -0.18500
C3711       C  0.44635392  0.87558509  0.73552675     0.09900
C3712       C  0.43933338  0.88639764  0.71088971    -0.07300
C3713       C  0.43032261  0.90355357  0.71789320    -0.18500
C3714       C  0.42791111  0.90982814  0.74834970     0.09900
S3715       S  0.45848522  0.85352118  0.72980896    -0.33500
S3716       S  0.41816093  0.93353320  0.75441220    -0.33500
H3717       H  0.43491288  0.94563626  0.77933009     0.27900
H3718       H  0.46638897  0.85327095  0.76016584     0.27900
H3719       H  0.44906427  0.87345769  0.78433068     0.18500
H3720       H  0.42548483  0.91256567  0.69949242     0.18500
C3721       C  0.46882236  0.90482655  0.52130229    -0.07300
C3722       C  0.46211792  0.88143628  0.50662072    -0.18500
C3723       C  0.45764397  0.88150051  0.97727666     0.09900
C3724       C  0.45458881  0.90013755  0.96080021    -0.07300
C3725       C  0.46266251  0.92449735  0.97418652    -0.18500
C3726       C  0.47282490  0.93017654  0.00403898     0.09900
S3727       S  0.44915336  0.85029946  0.96108815    -0.33500
S3728       S  0.47686852  0.95565444  0.52156405    -0.33500
H3729       H  0.49541528  0.95615226  0.54172880     0.27900
H3730       H  0.45730483  0.84103623  0.98583022     0.27900
H3731       H  0.46189653  0.86591812  0.51964752     0.18500
H3732       H  0.46054236  0.93896336  0.96159333     0.18500
C3733       C  0.31031541  0.86199739  0.98148314    -0.07300
C3734       C  0.33643209  0.87684930  0.98957043    -0.18500
C3735       C  0.35577284  0.88631102  0.96706808     0.09900
C3736       C  0.34889907  0.88067987  0.93579635    -0.07300
C3737       C  0.32277033  0.86885529  0.92755787    -0.18500
C3738       C  0.30339855  0.85960024  0.95013842     0.09900
S3739       S  0.38889313  0.90390423  0.97976820    -0.33500
S3740       S  0.27023810  0.84379961  0.93770755    -0.33500
H3741       H  0.26038915  0.84828620  0.96500009     0.27900
H3742       H  0.39936152  0.91680973  0.95179635     0.27900
H3743       H  0.34093526  0.87376934  0.51314841     0.18500
H3744       H  0.31731053  0.86490575  0.90357101     0.18500
C3745       C  0.27724635  0.79525079  0.82253769    -0.07300
C3746       C  0.29036092  0.78324070  0.83464936    -0.18500
C3747       C  0.31688203  0.79778421  0.84182103     0.09900
C3748       C  0.33063672  0.82487395  0.83657772    -0.07300
C3749       C  0.31754765  0.83641120  0.82346605    -0.18500
C3750       C  0.29145183  0.82214605  0.81632643     0.09900
S3751       S  0.33205128  0.78073900  0.85716825    -0.33500
S3752       S  0.27772982  0.83972189  0.79857672    -0.33500
H3753       H  0.26575782  0.82137662  0.77513149     0.27900
H3754       H  0.35637386  0.79715303  0.84385519     0.27900
H3755       H  0.27985306  0.76258404  0.83900252     0.18500
H3756       H  0.32759081  0.85712195  0.81940927     0.18500
C3757       C  0.61442547  0.16531338  0.90202434    -0.07300
C3758       C  0.62178392  0.17329035  0.93234168    -0.18500
C3759       C  0.64682141  0.18103147  0.94247980     0.09900
C3760       C  0.66527193  0.18111710  0.92166798    -0.07300
C3761       C  0.65803462  0.17447450  0.89082002    -0.18500
C3762       C  0.63305712  0.16688857  0.88083094     0.09900
S3763       S  0.65274398  0.18799570  0.98290677    -0.33500
S3764       S  0.62565923  0.15855436  0.84087440    -0.33500
H3765       H  0.60922290  0.16892396  0.83873275     0.27900
H3766       H  0.66236017  0.17114689  0.98710059     0.27900
H3767       H  0.60739358  0.17161839  0.94880878     0.18500
H3768       H  0.67173086  0.17458810  0.87441488     0.18500
C3769       C  0.47187959  0.02908583  0.87557252    -0.07300
C3770       C  0.45082852  0.01347509  0.89479017    -0.18500
C3771       C  0.43713071  0.98638352  0.89158898     0.09900
C3772       C  0.44473799  0.97456499  0.86883227    -0.07300
C3773       C  0.46516570  0.99038556  0.84897095    -0.18500
C3774       C  0.47850100  0.01731855  0.85183138     0.09900
S3775       S  0.41229928  0.96785150  0.91940284    -0.33500
S3776       S  0.50393603  0.03566686  0.82450994    -0.33500
H3777       H  0.49961755  0.05673055  0.82348728     0.27900
H3778       H  0.39306281  0.95509540  0.89708281     0.27900
H3779       H  0.44585317  0.02231160  0.91335427     0.18500
H3780       H  0.47096330  0.98163807  0.83112156     0.18500
C3781       C  0.52721556  0.09706524  0.98320320    -0.07300
C3782       C  0.52668162  0.07608524  0.99844579    -0.18500
C3783       C  0.53193663  0.07607906  0.52880435     0.09900
C3784       C  0.53597142  0.09784239  0.54610341    -0.07300
C3785       C  0.53229078  0.11690191  0.53228695    -0.18500
C3786       C  0.53320889  0.11965568  0.99964785     0.09900
S3787       S  0.53603442  0.05043873  0.54443296    -0.33500
S3788       S  0.53680546  0.14851501  0.98180624    -0.33500
H3789       H  0.54903835  0.14675359  0.95499154     0.27900
H3790       H  0.55854010  0.06679109  0.56101058     0.27900
H3791       H  0.52220801  0.05874732  0.98565992     0.18500
H3792       H  0.53537585  0.13366581  0.54542788     0.18500
C3793       C  0.55978690  0.10943144  0.79579997    -0.07300
C3794       C  0.55495937  0.12380351  0.77425622    -0.18500
C3795       C  0.55774378  0.12138066  0.74308471     0.09900
C3796       C  0.56523345  0.10375700  0.73250677    -0.07300
C3797       C  0.57086465  0.08974872  0.75403844    -0.18500
C3798       C  0.56843551  0.09260746  0.78571264     0.09900
S3799       S  0.55230213  0.14231025  0.71842926    -0.33500
S3800       S  0.57777884  0.07543999  0.81188682    -0.33500
H3801       H  0.58767737  0.09492018  0.83447581     0.27900
H3802       H  0.57431731  0.14918939  0.70027506     0.27900
H3803       H  0.54872543  0.13712254  0.78175444     0.18500
H3804       H  0.57719698  0.07661378  0.74619266     0.18500
C3805       C  0.47699550  0.12785354  0.81665030    -0.07300
C3806       C  0.46503661  0.14215584  0.82400168    -0.18500
C3807       C  0.45552511  0.15127929  0.80093540     0.09900
C3808       C  0.45777642  0.14573509  0.76986584    -0.07300
C3809       C  0.46701704  0.12891013  0.76283167    -0.18500
C3810       C  0.47684470  0.12001574  0.78606528     0.09900
S3811       S  0.44233994  0.17132924  0.81244612    -0.33500
S3812       S  0.48981097  0.09935165  0.77667757    -0.33500
H3813       H  0.48432376  0.09730721  0.74503578     0.27900
H3814       H  0.42665666  0.16629790  0.78642056     0.27900
H3815       H  0.46479825  0.14786053  0.84762776     0.18500
H3816       H  0.46850275  0.12453040  0.73899419     0.18500
C3817       C  0.49068673  0.21331667  0.93964871    -0.07300
C3818       C  0.50379849  0.21780196  0.91162059    -0.18500
C3819       C  0.51355063  0.20197235  0.90172807     0.09900
C3820       C  0.51020899  0.18085608  0.92034926    -0.07300
C3821       C  0.49831635  0.17751431  0.94927300    -0.18500
C3822       C  0.48854907  0.19334594  0.95896299     0.09900
S3823       S  0.52845391  0.20908493  0.86422278    -0.33500
S3824       S  0.47278346  0.18665324  0.99589249    -0.33500
H3825       H  0.44237973  0.18133790  0.47765873     0.27900
H3826       H  0.51144097  0.18430428  0.85255397     0.27900
H3827       H  0.50545635  0.23308296  0.89666323     0.18500
H3828       H  0.49560102  0.16174664  0.96405102     0.18500
C3829       C  0.51715371  0.33465657  0.91594871    -0.07300
C3830       C  0.51423854  0.34156969  0.88606551    -0.18500
C3831       C  0.53083539  0.36636682  0.87444485     0.09900
C3832       C  0.55069104  0.38511442  0.89314198    -0.07300
C3833       C  0.55505018  0.37765433  0.92205807    -0.18500
C3834       C  0.53834702  0.35272603  0.93375556     0.09900
S3835       S  0.52489294  0.37352955  0.83608701    -0.33500
S3836       S  0.54303985  0.34628870  0.97288463    -0.33500
H3837       H  0.51778871  0.33911677  0.98187729     0.27900
H3838       H  0.55078967  0.39211885  0.83008883     0.27900
H3839       H  0.49816702  0.32787137  0.87212799     0.18500
H3840       H  0.56993460  0.39200125  0.93678428     0.18500
C3841       C  0.43153521  0.23846063  0.85443577    -0.07300
C3842       C  0.45486724  0.25410795  0.83899729    -0.18500
C3843       C  0.45843533  0.24955007  0.80844394     0.09900
C3844       C  0.43818613  0.22851165  0.79241739    -0.07300
C3845       C  0.41452288  0.21311397  0.80767549    -0.18500
C3846       C  0.41097941  0.21787254  0.83843897     0.09900
S3847       S  0.48938598  0.27175439  0.79164704    -0.33500
S3848       S  0.37978760  0.19736318  0.85569899    -0.33500
H3849       H  0.38008052  0.21680759  0.87427364     0.27900
H3850       H  0.47917428  0.27282984  0.76314277     0.27900
H3851       H  0.47076678  0.26995038  0.85106266     0.18500
H3852       H  0.39884446  0.19695485  0.79577854     0.18500
C3853       C  0.43909077  0.21774421  0.54400139    -0.07300
C3854       C  0.41386640  0.20078835  0.55444849    -0.18500
C3855       C  0.40915811  0.19174729  0.58485660     0.09900
C3856       C  0.43016560  0.19984457  0.60507702    -0.07300
C3857       C  0.45533353  0.21579454  0.59429373    -0.18500
C3858       C  0.46009379  0.22448225  0.56398691     0.09900
S3859       S  0.37605519  0.17165003  0.59685012    -0.33500
S3860       S  0.49344823  0.24383851  0.55245114    -0.33500
H3861       H  0.48967818  0.23398922  0.52237828     0.27900
H3862       H  0.38086969  0.15890359  0.62077215     0.27900
H3863       H  0.39769121  0.19531454  0.53919464     0.18500
H3864       H  0.47147788  0.22176690  0.60982040     0.18500
C3865       C  0.17632378  0.05706936  0.97830678    -0.07300
C3866       C  0.19146359  0.04528978  0.97534906    -0.18500
C3867       C  0.18267431  0.01990934  0.98415568     0.09900
C3868       C  0.15744694  0.00468218  0.99618832    -0.07300
C3869       C  0.14263486  0.01463229  0.49870525    -0.18500
C3870       C  0.15069123  0.04177083  0.98949364     0.09900
S3871       S  0.20597747  0.00932876  0.98141289    -0.33500
S3872       S  0.12797697  0.05117886  0.49131258    -0.33500
H3873       H  0.14576850  0.07710490  0.00688507     0.27900
H3874       H  0.20460250  0.00391020  0.01300493     0.27900
H3875       H  0.21107330  0.05618048  0.96677931     0.18500
H3876       H  0.12314465  0.00279236  0.50740538     0.18500
C3877       C  0.30694494  0.20475707  0.96518743    -0.07300
C3878       C  0.32229555  0.20521382  0.98974231    -0.18500
C3879       C  0.34915919  0.21783375  0.98725672     0.09900
C3880       C  0.36118393  0.22958294  0.95911198    -0.07300
C3881       C  0.34603741  0.23102406  0.93538216    -0.18500
C3882       C  0.31902546  0.21858044  0.93804016     0.09900
S3883       S  0.36454915  0.21930784  0.52286904    -0.33500
S3884       S  0.30108403  0.21937689  0.90525215    -0.33500
H3885       H  0.28035284  0.19390480  0.90829313     0.27900
H3886       H  0.38676341  0.24309883  0.51589208     0.27900
H3887       H  0.31075202  0.19641250  0.51288276     0.18500
H3888       H  0.35508130  0.24034705  0.91384851     0.18500
C3889       C  0.11754287  0.17575063  0.50600835    -0.07300
C3890       C  0.12418752  0.16336026  0.52871116    -0.18500
C3891       C  0.14011413  0.15295594  0.52193175     0.09900
C3892       C  0.14946861  0.15464650  0.49169795    -0.07300
C3893       C  0.14126573  0.16532090  0.46858695    -0.18500
C3894       C  0.12568713  0.17609568  0.47544542     0.09900
S3895       S  0.14810023  0.13806835  0.55274638    -0.33500
S3896       S  0.11669275  0.19062542  0.44515415    -0.33500
H3897       H  0.12651953  0.18281872  0.42054915     0.27900
H3898       H  0.15956917  0.12744901  0.03727208     0.27900
H3899       H  0.11789104  0.16279276  0.55221308     0.18500
H3900       H  0.14882703  0.16672695  0.94634729     0.18500
C3901       C  0.23095572  0.14032834  0.56264322    -0.07300
C3902       C  0.24791641  0.15869066  0.58389430    -0.18500
C3903       C  0.24589591  0.15279403  0.61544161     0.09900
C3904       C  0.22677342  0.12794123  0.62558733    -0.07300
C3905       C  0.20957189  0.11016861  0.60414823    -0.18500
C3906       C  0.21129657  0.11604811  0.57310438     0.09900
S3907       S  0.26731164  0.17791331  0.64137612    -0.33500
S3908       S  0.18736008  0.09258334  0.54736020    -0.33500
H3909       H  0.17435527  0.07235180  0.56867784     0.27900
H3910       H  0.24889578  0.17125938  0.66494396     0.27900
H3911       H  0.26274737  0.17756913  0.57588938     0.18500
H3912       H  0.19464517  0.09121598  0.61172392     0.18500
C3913       C  0.23713867  0.11483547  0.87654685    -0.07300
C3914       C  0.25374323  0.13548108  0.85749108    -0.18500
C3915       C  0.25532077  0.13169727  0.82597370     0.09900
C3916       C  0.24017369  0.10665357  0.81337904    -0.07300
C3917       C  0.22547482  0.08568195  0.83305828    -0.18500
C3918       C  0.22370320  0.08952701  0.86442295     0.09900
S3919       S  0.27644309  0.15961060  0.80304053    -0.33500
S3920       S  0.20328261  0.06156896  0.88767091    -0.33500
H3921       H  0.21776413  0.07171450  0.91462217     0.27900
H3922       H  0.28289598  0.14594935  0.78182999     0.27900
H3923       H  0.26430354  0.15490556  0.86682558     0.18500
H3924       H  0.21420706  0.06633129  0.82370689     0.18500
C3925       C  0.44798364  0.61737944  0.59398530    -0.07300
C3926       C  0.45890801  0.63670148  0.61663876    -0.18500
C3927       C  0.47593896  0.66272574  0.60874231     0.09900
C3928       C  0.48166197  0.66963983  0.57744948    -0.07300
C3929       C  0.46903426  0.65053648  0.55482271    -0.18500
C3930       C  0.45265132  0.62455290  0.56269600     0.09900
S3931       S  0.49047916  0.68679208  0.63868100    -0.33500
S3932       S  0.43930069  0.60133792  0.53175976    -0.33500
H3933       H  0.41727253  0.58293151  0.54785017     0.27900
H3934       H  0.47821340  0.67005837  0.66367897     0.27900
H3935       H  0.45533676  0.63110855  0.64061856     0.18500
H3936       H  0.47326919  0.65556001  0.53071295     0.18500
C3937       C  0.32827885  0.51718197  0.58806051    -0.07300
C3938       C  0.30904885  0.50497105  0.61054265    -0.18500
C3939       C  0.28314736  0.49613341  0.60401138     0.09900
C3940       C  0.27604832  0.49923177  0.57402596    -0.07300
C3941       C  0.29554556  0.51323284  0.55217510    -0.18500
C3942       C  0.32161503  0.52222129  0.55882340     0.09900
S3943       S  0.26011453  0.48056303  0.63479677    -0.33500
S3944       S  0.34479698  0.53814017  0.52828720    -0.33500
H3945       H  0.36739704  0.54762133  0.54572165     0.27900
H3946       H  0.24234211  0.48760791  0.62416832     0.27900
H3947       H  0.31421494  0.50164664  0.63326441     0.18500
H3948       H  0.29033184  0.51575682  0.52914400     0.18500
C3949       C  0.42408396  0.52431120  0.51799257    -0.07300
C3950       C  0.44980239  0.53742736  0.50733898    -0.18500
C3951       C  0.45677369  0.54584570  0.97603749     0.09900
C3952       C  0.43620400  0.53763327  0.95516556    -0.07300
C3953       C  0.41093829  0.52135970  0.96539624    -0.18500
C3954       C  0.40564908  0.51405454  0.99632805     0.09900
S3955       S  0.49009768  0.56524156  0.96448798    -0.33500
S3956       S  0.37014187  0.49600400  0.50526554    -0.33500
H3957       H  0.37351574  0.47740814  0.52118092     0.27900
H3958       H  0.48714021  0.55412641  0.93524513     0.27900
H3959       H  0.46561849  0.54370073  0.52339197     0.18500
H3960       H  0.39515051  0.51456113  0.94917796     0.18500
C3961       C  0.44880787  0.56719151  0.70561977    -0.07300
C3962       C  0.46467511  0.55762030  0.71558768    -0.18500
C3963       C  0.47133356  0.55885524  0.74664370     0.09900
C3964       C  0.46157168  0.56961552  0.76803948    -0.07300
C3965       C  0.44687179  0.58030617  0.75778097    -0.18500
C3966       C  0.44074224  0.57963401  0.72685821     0.09900
S3967       S  0.49027629  0.54435851  0.75746782    -0.33500
S3968       S  0.42244525  0.59486445  0.71608641    -0.33500
H3969       H  0.43298617  0.60180291  0.68632831     0.27900
H3970       H  0.50067293  0.55839345  0.78462958     0.27900
H3971       H  0.47073410  0.54786412  0.69942333     0.18500
H3972       H  0.44007719  0.58927229  0.77408631     0.18500
C3973       C  0.61256594  0.45572687  0.65103267    -0.07300
C3974       C  0.61955311  0.45447824  0.68135333    -0.18500
C3975       C  0.64465320  0.47106479  0.69194031     0.09900
C3976       C  0.66368843  0.48947900  0.67161825    -0.07300
C3977       C  0.65675978  0.48993103  0.64086080    -0.18500
C3978       C  0.63158637  0.47323067  0.63038344     0.09900
S3979       S  0.64996883  0.46916560  0.73240868    -0.33500
S3980       S  0.62433312  0.47670013  0.59106737    -0.33500
H3981       H  0.60628808  0.45038387  0.58656367     0.27900
H3982       H  0.66083790  0.49584465  0.73742503     0.27900
H3983       H  0.60493525  0.44153930  0.69746473     0.18500
H3984       H  0.67088065  0.50388102  0.62500673     0.18500
C3985       C  0.53040447  0.43563570  0.73002748    -0.07300
C3986       C  0.52653205  0.45307383  0.74754036    -0.18500
C3987       C  0.53516457  0.45869127  0.77797151     0.09900
C3988       C  0.54732825  0.44598867  0.79146112    -0.07300
C3989       C  0.55136679  0.42882465  0.77350871    -0.18500
C3990       C  0.54357578  0.42391579  0.74302327     0.09900
S3991       S  0.53132058  0.48320249  0.79735746    -0.33500
S3992       S  0.55245761  0.40352892  0.72190065    -0.33500
H3993       H  0.55458952  0.41491582  0.69314881     0.27900
H3994       H  0.55634880  0.49586500  0.80981947     0.27900
H3995       H  0.51713864  0.46269961  0.73733079     0.18500
H3996       H  0.56117522  0.41936592  0.78307728     0.18500
C3997       C  0.56336087  0.46355032  0.97991185    -0.07300
C3998       C  0.56848758  0.44422243  0.98922490    -0.18500
C3999       C  0.56360412  0.43555107  0.51957718     0.09900
C4000       C  0.55813729  0.44938007  0.54200419    -0.07300
C4001       C  0.55592532  0.47079156  0.53313449    -0.18500
C4002       C  0.55744839  0.47766779  0.50223406     0.09900
S4003       S  0.57052625  0.41017183  0.52939404    -0.33500
S4004       S  0.54932201  0.50145119  0.99128636    -0.33500
H4005       H  0.53957583  0.49167733  0.96188557     0.27900
H4006       H  0.57089762  0.40169903  0.49929249     0.27900
H4007       H  0.57413430  0.43475868  0.97214631     0.18500
H4008       H  0.55181438  0.48151260  0.55014993     0.18500
C4009       C  0.47041430  0.35490920  0.56801332    -0.07300
C4010       C  0.47823159  0.36502294  0.53830799    -0.18500
C4011       C  0.47094201  0.34872163  0.51270574     0.09900
C4012       C  0.45552186  0.32173615  0.51691258    -0.07300
C4013       C  0.44616652  0.31176949  0.54630930    -0.18500
C4014       C  0.45344658  0.32810611  0.57194399     0.09900
S4015       S  0.47998153  0.36327305  0.97455518    -0.33500
S4016       S  0.44329648  0.31333716  0.60936219    -0.33500
H4017       H  0.44449358  0.33496176  0.62379809     0.27900
H4018       H  0.45968707  0.34345992  0.95773598     0.27900
H4019       H  0.49181946  0.38551861  0.53531102     0.18500
H4020       H  0.43473845  0.29098818  0.54962060     0.18500
C4021       C  0.47487023  0.45425040  0.62880262    -0.07300
C4022       C  0.45824550  0.44865691  0.60368508    -0.18500
C4023       C  0.44435532  0.46170028  0.59953171     0.09900
C4024       C  0.44653326  0.48034420  0.62143770    -0.07300
C4025       C  0.46327604  0.48577455  0.64643799    -0.18500
C4026       C  0.47725751  0.47300072  0.65031173     0.09900
S4027       S  0.42585730  0.45508586  0.56472569    -0.33500
S4028       S  0.49841155  0.48186436  0.68291922    -0.33500
H4029       H  0.49066903  0.45613089  0.69061820     0.27900
H4030       H  0.43473362  0.48130518  0.55815804     0.27900
H4031       H  0.45671123  0.43466368  0.58670477     0.18500
H4032       H  0.46552882  0.50015705  0.66326689     0.18500
C4033       C  0.51006296  0.33733486  0.67459165    -0.07300
C4034       C  0.52040263  0.32356271  0.65976815    -0.18500
C4035       C  0.51185545  0.29756681  0.66717513     0.09900
C4036       C  0.49226278  0.28494230  0.68951984    -0.07300
C4037       C  0.48321469  0.29931868  0.70539816    -0.18500
C4038       C  0.49210888  0.32521667  0.69870063     0.09900
S4039       S  0.52422146  0.28075881  0.64489881    -0.33500
S4040       S  0.47878934  0.34112663  0.72123997    -0.33500
H4041       H  0.50033355  0.36595474  0.71864307     0.27900
H4042       H  0.53174194  0.27224224  0.67092507     0.27900
H4043       H  0.53400650  0.33255207  0.64100428     0.18500
H4044       H  0.46823417  0.29003566  0.72267136     0.18500
C4045       C  0.17048112  0.51428700  0.83081697    -0.07300
C4046       C  0.16197328  0.49303162  0.81081410    -0.18500
C4047       C  0.17784008  0.48293558  0.80270668     0.09900
C4048       C  0.20312440  0.49425233  0.81454141    -0.07300
C4049       C  0.21244510  0.51645917  0.83283757    -0.18500
C4050       C  0.19660830  0.52678463  0.84075840     0.09900
S4051       S  0.16529446  0.45506064  0.77767641    -0.33500
S4052       S  0.21104517  0.55583384  0.86360383    -0.33500
H4053       H  0.19902494  0.56726864  0.84739299     0.27900
H4054       H  0.14106341  0.45263324  0.77221175     0.27900
H4055       H  0.14228393  0.48335906  0.80261213     0.18500
H4056       H  0.23197071  0.52546082  0.84160984     0.18500
C4057       C  0.23234543  0.43611516  0.89907884    -0.07300
C4058       C  0.24337986  0.46168709  0.90930998    -0.18500
C4059       C  0.24140549  0.46733055  0.93989075     0.09900
C4060       C  0.22708545  0.44693516  0.96079014    -0.07300
C4061       C  0.21615199  0.42116360  0.95070348    -0.18500
C4062       C  0.21859779  0.41555764  0.91982634     0.09900
S4063       S  0.25777465  0.50102245  0.95076885    -0.33500
S4064       S  0.20410916  0.38246115  0.90692855    -0.33500
H4065       H  0.19130984  0.37096235  0.93466240     0.27900
H4066       H  0.26344930  0.49684271  0.98082722     0.27900
H4067       H  0.25335561  0.47749782  0.89314373     0.18500
H4068       H  0.20491456  0.40556190  0.96669511     0.18500
C4069       C  0.20752349  0.44218279  0.71139226    -0.07300
C4070       C  0.19671222  0.45679019  0.70118542    -0.18500
C4071       C  0.18829918  0.45494192  0.67090799     0.09900
C4072       C  0.18999027  0.43739797  0.65028815    -0.07300
C4073       C  0.19962204  0.42176042  0.66137015    -0.18500
C4074       C  0.20876773  0.42422362  0.69144469     0.09900
S4075       S  0.17797847  0.47731145  0.65983357    -0.33500
S4076       S  0.22218633  0.40417846  0.70226493    -0.33500
H4077       H  0.23392140  0.41613958  0.73006633     0.27900
H4078       H  0.19653206  0.48799599  0.63617556     0.27900
H4079       H  0.19613583  0.47082655  0.71648368     0.18500
H4080       H  0.20097751  0.40811398  0.64617247     0.18500
C4081       C  0.31183795  0.45919715  0.73555269    -0.07300
C4082       C  0.30355997  0.45042260  0.70553972    -0.18500
C4083       C  0.32112483  0.45901217  0.68088959     0.09900
C4084       C  0.34736272  0.47731217  0.68625203    -0.07300
C4085       C  0.35582248  0.48474679  0.71650651    -0.18500
C4086       C  0.33843082  0.47554508  0.74118057     0.09900
S4087       S  0.30847153  0.44828680  0.64280802    -0.33500
S4088       S  0.35089023  0.48715562  0.77912226    -0.33500
H4089       H  0.33265953  0.46441816  0.79426173     0.27900
H4090       H  0.33053366  0.44860694  0.63123472     0.27900
H4091       H  0.28314601  0.43822038  0.70098013     0.18500
H4092       H  0.37587180  0.49896012  0.72075750     0.18500
C4093       C  0.32493287  0.51548778  0.83937357    -0.07300
C4094       C  0.34083983  0.53868496  0.82335945    -0.18500
C4095       C  0.36697784  0.55483286  0.83145003     0.09900
C4096       C  0.37727553  0.54786402  0.85652880    -0.07300
C4097       C  0.36070500  0.52591482  0.87389376    -0.18500
C4098       C  0.33492422  0.50990536  0.86581922     0.09900
S4099       S  0.38628931  0.58258279  0.80732498    -0.33500
S4100       S  0.31602937  0.48202620  0.88976995    -0.33500
H4101       H  0.29310150  0.48218751  0.88461837     0.27900
H4102       H  0.40999667  0.58386859  0.81218774     0.27900
H4103       H  0.33353890  0.54313526  0.80289468     0.18500
H4104       H  0.36825602  0.52055665  0.89341757     0.18500
C4105       C  0.99193617  0.14997142  0.75122147    -0.07300
C4106       C  0.00984241  0.15048174  0.72977574    -0.18500
C4107       C  0.03535749  0.15866127  0.73801429     0.09900
C4108       C  0.04348060  0.16656663  0.76846688    -0.07300
C4109       C  0.02521038  0.16428562  0.79046843    -0.18500
C4110       C  0.99950599  0.15572288  0.78232395     0.09900
S4111       S  0.05717262  0.16139209  0.70775052    -0.33500
S4112       S  0.97758544  0.15321606  0.81243067    -0.33500
H4113       H  0.95554908  0.13247085  0.79898836     0.27900
H4114       H  0.07429947  0.15806199  0.72651652     0.27900
H4115       H  0.00448464  0.14619052  0.70579688     0.18500
H4116       H  0.03132568  0.17039310  0.81392693     0.18500
C4117       C  0.20864839  0.36085008  0.79789453    -0.07300
C4118       C  0.22223523  0.34870010  0.78777288    -0.18500
C4119       C  0.20931049  0.32199955  0.78131952     0.09900
C4120       C  0.18231760  0.30688091  0.78600563    -0.07300
C4121       C  0.16902870  0.31909504  0.79679074    -0.18500
C4122       C  0.18175310  0.34551233  0.80314067     0.09900
S4123       S  0.22790563  0.30890658  0.76478161    -0.33500
S4124       S  0.16243801  0.35812624  0.81900014    -0.33500
H4125       H  0.18118999  0.37412140  0.84045006     0.27900
H4126       H  0.20916103  0.29378822  0.74275653     0.27900
H4127       H  0.24277413  0.36026793  0.78335133     0.18500
H4128       H  0.14840649  0.30783316  0.80088032     0.18500
C4129       C  0.14733450  0.15560421  0.74779934    -0.07300
C4130       C  0.16179604  0.16111226  0.72048956    -0.18500
C4131       C  0.17226843  0.14599132  0.71095901     0.09900
C4132       C  0.16900634  0.12504899  0.72926538    -0.07300
C4133       C  0.15295203  0.11807413  0.75514820    -0.18500
C4134       C  0.14172011  0.13276118  0.76434470     0.09900
S4135       S  0.18972160  0.15434399  0.67508872    -0.33500
S4136       S  0.12141179  0.12161800  0.79801157    -0.33500
H4137       H  0.10134252  0.12364950  0.78405493     0.27900
H4138       H  0.17774534  0.12850509  0.66508131     0.27900
H4139       H  0.16568024  0.17781356  0.70672567     0.18500
H4140       H  0.14990428  0.10165484  0.76893446     0.18500
C4141       C  0.18455682  0.21124084  0.84983882    -0.07300
C4142       C  0.19815932  0.19898573  0.84044534    -0.18500
C4143       C  0.20900085  0.18993222  0.86207027     0.09900
C4144       C  0.20661508  0.19374677  0.89370784    -0.07300
C4145       C  0.19542913  0.20848999  0.90278756    -0.18500
C4146       C  0.18431128  0.21719910  0.88116226     0.09900
S4147       S  0.22486515  0.17268077  0.84906980    -0.33500
S4148       S  0.16929835  0.23497591  0.89484344    -0.33500
H4149       H  0.17350128  0.24913161  0.86753399     0.27900
H4150       H  0.21814622  0.17104288  0.81784516     0.27900
H4151       H  0.19856927  0.19476719  0.81628325     0.18500
H4152       H  0.19362953  0.21163428  0.92700694     0.18500
C4153       C  0.11808445  0.22456023  0.61947054    -0.07300
C4154       C  0.13381065  0.24975035  0.63092072    -0.18500
C4155       C  0.13981966  0.25411533  0.66234360     0.09900
C4156       C  0.12968803  0.23271886  0.68261779    -0.07300
C4157       C  0.11585485  0.20763642  0.67077272    -0.18500
C4158       C  0.11009400  0.20326713  0.63957989     0.09900
S4159       S  0.15920588  0.28735151  0.67475435    -0.33500
S4160       S  0.09221192  0.17001425  0.62707860    -0.33500
H4161       H  0.10338039  0.17492046  0.59760396     0.27900
H4162       H  0.16178504  0.28317002  0.70591873     0.27900
H4163       H  0.14026866  0.26620417  0.61563736     0.18500
H4164       H  0.10943617  0.19122856  0.68610403     0.18500
C4165       C  0.09299309  0.23841790  0.93407447    -0.07300
C4166       C  0.11171146  0.25939924  0.91693641    -0.18500
C4167       C  0.11575796  0.25667242  0.88565113     0.09900
C4168       C  0.10043765  0.23244982  0.87100758    -0.07300
C4169       C  0.08130010  0.21180874  0.88822637    -0.18500
C4170       C  0.07779581  0.21429768  0.91943332     0.09900
S4171       S  0.14145497  0.28446955  0.86652071    -0.33500
S4172       S  0.05522441  0.18510379  0.93954705    -0.33500
H4173       H  0.06947003  0.19088795  0.96690511     0.27900
H4174       H  0.15146754  0.27071085  0.85118814     0.27900
H4175       H  0.12361230  0.27786329  0.92815973     0.18500
H4176       H  0.06957981  0.19303662  0.87757162     0.18500
loop_ 
_geom_bond_atom_site_label_1 
_geom_bond_atom_site_label_2 
_geom_bond_distance 
_geom_bond_site_symmetry_2 
_ccdc_geom_bond_type 
O1           C16   1.266       .  A
O1           Al9   1.907       .  S
C2           O12   1.264       .  A
C2            O3   1.263       .  A
C2         C2068   1.461       .  S
O3           Al5   1.889       .  S
O4            C6   1.260       .  A
O4           Al5   1.911       .  S
Al5          O13   1.905       .  S
Al5          O15   1.906       .  S
Al5          O14   1.780       .  S
C6           O19   1.262       .  A
C6         C2020   1.476       .  S
O7           C17   1.261       .  A
O7           Al9   1.920       .  S
O8           C21   1.262       .  A
O8          Al18   1.912       .  S
Al9          O22   1.890       .  S
Al9          O19   1.918       .  S
Al9          O14   1.779       .  S
O10          C17   1.261       .  A
O10         Al18   1.891       .  S
O11          C20   1.261       .  A
O11         Al18   1.913       .  S
O12         Al18   1.918       .  S
O13          C20   1.260       .  A
O14         Al18   1.783       .  S
O15          C16   1.264       .  A
C16        C2080   1.479       .  S
C17        C2041   1.493       .  S
C20        C2032   1.486       .  S
C21          O22   1.259       .  A
C21        C2053   1.469       .  S
O23          C38   1.259       .  A
O23         Al31   1.886       .  S
C24          O34   1.260       .  A
C24          O25   1.266       .  A
C24        C1969   1.465       .  S
O25         Al27   1.927       .  S
O26          C28   1.253       .  A
O26         Al27   1.878       .  S
Al27         O35   1.873       .  S
Al27         O37   1.908       .  S
Al27         O36   1.787       .  S
C28          O41   1.262       .  A
C28        C1960   1.481       .  S
O29          C39   1.264       .  A
O29         Al31   1.917       .  S
O30          C43   1.266       .  A
O30         Al40   1.915       .  S
Al31         O44   1.920       .  S
Al31         O41   1.937       .  S
Al31         O36   1.792       .  S
O32          C39   1.264       .  A
O32         Al40   1.921       .  S
O33          C42   1.260       .  A
O33         Al40   1.939       .  S
O34         Al40   1.879       .  S
O35          C42   1.249       .  A
O36         Al40   1.791       .  S
O37          C38   1.261       .  A
C38        C1981   1.462       .  S
C39        C2005   1.486       .  S
C42        C2029   1.485       .  S
C43          O44   1.266       .  A
C43        C1993   1.473       .  S
O45          C60   1.255       .  A
O45         Al53   1.854       .  S
C46          O56   1.262       .  A
C46          O47   1.269       .  A
C46        C1897   1.461       .  S
O47         Al49   1.926       .  S
O48          C50   1.253       .  A
O48         Al49   1.881       .  S
Al49         O57   1.889       .  S
Al49         O59   1.912       .  S
Al49         O58   1.785       .  S
C50          O63   1.260       .  A
C50        C1885   1.477       .  S
O51          C61   1.261       .  A
O51         Al53   1.902       .  S
O52          C65   1.267       .  A
O52         Al62   1.910       .  S
Al53         O66   1.919       .  S
Al53         O63   1.929       .  S
Al53         O58   1.785       .  S
O54          C61   1.262       .  A
O54         Al62   1.915       .  S
O55          C64   1.258       .  A
O55         Al62   1.924       .  S
O56         Al62   1.876       .  S
O57          C64   1.252       .  A
O58         Al62   1.788       .  S
O59          C60   1.264       .  A
C60        C1912   1.467       .  S
C61        C1945   1.478       .  S
C64        C1933   1.488       .  S
C65          O66   1.267       .  A
C65        C1921   1.466       .  S
O67          C82   1.255       .  A
O67         Al75   1.853       .  S
C68          O78   1.262       .  A
C68          O69   1.271       .  A
C68        C1861   1.493       .  S
O69         Al71   1.936       .  S
O70          C72   1.256       .  A
O70         Al71   1.891       .  S
Al71         O79   1.889       .  S
Al71         O81   1.943       .  S
Al71         O80   1.778       .  S
C72          O85   1.260       .  A
C72        C1837   1.477       .  S
O73          C83   1.259       .  A
O73         Al75   1.895       .  S
O74          C87   1.266       .  A
O74         Al84   1.915       .  S
Al75         O88   1.919       .  S
Al75         O85   1.925       .  S
Al75         O80   1.780       .  S
O76          C83   1.264       .  A
O76         Al84   1.925       .  S
O77          C86   1.261       .  A
O77         Al84   1.931       .  S
O78         Al84   1.886       .  S
O79          C86   1.258       .  A
O80         Al84   1.783       .  S
O81          C82   1.269       .  A
C82        C1873   1.474       .  S
C83        C1849   1.465       .  S
C86        C1936   1.495       .  S
C87          O88   1.265       .  A
C87        C1996   1.472       .  S
O89         C104   1.265       .  A
O89         Al97   1.922       .  S
C90         O100   1.269       .  A
C90          O91   1.260       .  A
C90        C1813   1.468       .  S
O91       Al2181   1.862   1_554  S
O92          C94   1.262       .  A
O92         Al93   1.896       .  S
Al93        O101   1.882       .  S
Al93        O103   1.908       .  S
Al93       O2179   1.866       .  S
Al93        O102   1.777       .  S
C94         O107   1.267       .  A
C94        C1777   1.499       .  S
O95         C105   1.260       .  A
O95         Al97   1.915       .  S
O96         C109   1.266       .  A
O96        Al106   1.917       .  S
Al97        O110   1.882       .  S
Al97        O107   1.935       .  S
Al97        O102   1.786       .  S
O98         C105   1.260       .  A
O98        Al106   1.911       .  S
O99         C108   1.259       .  A
O99        Al106   1.922       .  S
O100      Al2194   1.938   1_554  S
O101        C108   1.252       .  A
O102       Al106   1.788       .  S
O103        C104   1.263       .  A
C104       C1825   1.471       .  S
C105       C3892   1.484       .  S
Al106      O2188   1.933       .  S
C108       C1789   1.473       .  S
C109        O110   1.262       .  A
C109       C2056   1.473       .  S
O111        C126   1.255       .  A
O111      Al2207   1.872   1_554  S
C112        O122   1.262       .  A
C112        O113   1.269       .  A
C112       C1753   1.473       .  S
O113       Al115   1.932       .  S
O114        C116   1.258       .  A
O114       Al115   1.893       .  S
Al115       O123   1.896       .  S
Al115       O125   1.910       .  S
Al115       O124   1.786       .  S
C116        O129   1.262       .  A
C116       C1729   1.477       .  S
O117        C127   1.260       .  A
O117       Al119   1.913       .  S
O118        C131   1.264       .  A
O118       Al128   1.899       .  S
Al119       O132   1.920       .  S
Al119       O129   1.924       .  S
Al119      O2199   1.875       .  S
Al119       O124   1.788       .  S
O120        C127   1.259       .  A
O120       Al128   1.903       .  S
O121        C130   1.256       .  A
O121       Al128   1.918       .  S
O122       Al128   1.874       .  S
O123        C130   1.255       .  A
O124       Al128   1.790       .  S
O125       C2214   1.261       .  A
C126       O2213   1.262   1_554  A
C126       C1765   1.482       .  S
C127       C1741   1.479       .  S
C130       C1792   1.482       .  S
C131        O132   1.267       .  A
C131       C4012   1.464       .  S
O133        C148   1.262       .  A
O133       Al141   1.891       .  S
C134        O144   1.263       .  A
C134        O135   1.267       .  A
C134       C1693   1.458       .  S
O135       Al137   1.911       .  S
O136        C138   1.260       .  A
O136       Al137   1.907       .  S
Al137       O145   1.908       .  S
Al137       O147   1.901       .  S
Al137       O146   1.796       .  S
C138        O151   1.253       .  A
C138       C1732   1.497       .  S
O139        C149   1.263       .  A
O139       Al141   1.920       .  S
O140        C153   1.260       .  A
O140       Al150   1.896       .  S
Al141       O154   1.891       .  S
Al141       O151   1.892       .  S
Al141       O146   1.787       .  S
O142        C149   1.261       .  A
O142       Al150   1.913       .  S
O143        C152   1.252       .  A
O143       Al150   1.890       .  S
O144       Al150   1.879       .  S
O145        C152   1.255       .  A
O146       Al150   1.797       .  S
O147        C148   1.262       .  A
C148       C1717   1.462       .  S
C149       C1669   1.476       .  S
C152       C1681   1.479       .  S
C153        O154   1.260       .  A
C153       C1705   1.467       .  S
O155        C170   1.260       .  A
O155       Al163   1.875       .  S
C156        O166   1.262       .  A
C156        O157   1.271       .  A
C156       C1621   1.487       .  S
O157       Al159   1.942       .  S
O158        C160   1.256       .  A
O158       Al159   1.882       .  S
Al159       O167   1.907       .  S
Al159       O169   1.944       .  S
Al159       O168   1.776       .  S
C160        O173   1.259       .  A
C160       C1660   1.483       .  S
O161        C171   1.264       .  A
O161       Al163   1.921       .  S
O162        C175   1.263       .  A
O162       Al172   1.897       .  S
Al163       O176   1.912       .  S
Al163       O173   1.919       .  S
Al163       O168   1.780       .  S
O164        C171   1.264       .  A
O164       Al172   1.924       .  S
O165        C174   1.258       .  A
O165       Al172   1.910       .  S
O166       Al172   1.866       .  S
O167        C174   1.256       .  A
O168       Al172   1.780       .  S
O169        C170   1.270       .  A
C170       C1648   1.477       .  S
C171       C1609   1.480       .  S
C174       C1684   1.486       .  S
C175        O176   1.266       .  A
C175       C1636   1.472       .  S
O177        C192   1.263       .  A
O177       Al185   1.897       .  S
C178        O188   1.263       .  A
C178        O179   1.265       .  A
C178       C1828   1.474       .  S
O179       Al181   1.913       .  S
O180        C182   1.258       .  A
O180       Al181   1.905       .  S
Al181       O189   1.903       .  S
Al181       O191   1.923       .  S
Al181       O190   1.786       .  S
C182        O195   1.258       .  A
C182       C1597   1.481       .  S
O183        C193   1.266       .  A
O183       Al185   1.915       .  S
O184        C197   1.259       .  A
O184       Al194   1.905       .  S
Al185       O198   1.892       .  S
Al185       O195   1.907       .  S
Al185       O190   1.786       .  S
O186        C193   1.267       .  A
O186       Al194   1.923       .  S
O187        C196   1.258       .  A
O187       Al194   1.899       .  S
O188       Al194   1.892       .  S
O189        C196   1.257       .  A
O190       Al194   1.786       .  S
O191        C192   1.267       .  A
C192       C1576   1.476       .  S
C193       C2044   1.482       .  S
C196       C1588   1.473       .  S
C197        O198   1.260       .  A
C197       C1816   1.475       .  S
O199        C214   1.257       .  A
O199       Al207   1.865       .  S
C200        O210   1.264       .  A
C200        O201   1.273       .  A
C200       C1768   1.465       .  S
O201       Al203   1.941       .  S
O202        C204   1.255       .  A
O202       Al203   1.889       .  S
Al203       O211   1.914       .  S
Al203       O213   1.919       .  S
Al203       O212   1.789       .  S
C204        O217   1.260       .  A
C204       C1564   1.502       .  S
O205        C215   1.259       .  A
O205       Al207   1.916       .  S
O206        C219   1.268       .  A
O206       Al216   1.900       .  S
Al207       O220   1.927       .  S
Al207       O217   1.918       .  S
Al207       O212   1.785       .  S
O208        C215   1.257       .  A
O208       Al216   1.897       .  S
O209        C218   1.251       .  A
O209       Al216   1.884       .  S
O210       Al216   1.869       .  S
O211        C218   1.253       .  A
O212       Al216   1.788       .  S
O213        C214   1.265       .  A
C214       C1720   1.466       .  S
C215       C1948   1.481       .  S
C218       C1585   1.479       .  S
C219        O220   1.270       .  A
C219       C1756   1.482       .  S
O221        C236   1.258       .  A
O221       Al229   1.875       .  S
C222        O232   1.264       .  A
C222        O223   1.267       .  A
C222       C1537   1.479       .  S
O223      Al2313   1.933       .  S
O224       C2314   1.257       .  A
O224      Al2313   1.885       .  S
Al225       O233   1.912       .  S
Al225       O235   1.942       .  S
Al225      O2311   1.943   1_554  S
Al225      O2312   1.882   1_554  S
Al225       O234   1.775       .  S
C226        O239   1.264       .  A
C226       O2312   1.255   1_554  A
C226       C3868   1.488   1_564  S
O227        C237   1.261       .  A
O227       Al229   1.907       .  S
O228        C241   1.261       .  A
O228       Al238   1.895       .  S
Al229       O242   1.934       .  S
Al229       O239   1.939       .  S
Al229       O234   1.784       .  S
O230        C237   1.263       .  A
O230       Al238   1.922       .  S
O231        C240   1.260       .  A
O231       Al238   1.914       .  S
O232      Al2326   1.884       .  S
O233        C240   1.259       .  A
O234       Al238   1.778       .  S
O235        C236   1.268       .  A
C236       C1573   1.477       .  S
C237       C1516   1.470       .  S
Al238      O2320   1.889   1_554  S
C240       C1528   1.494       .  S
C241        O242   1.269       .  A
C241       C1552   1.476       .  S
O243       C2346   1.261       .  A
O243      Al2339   1.890       .  S
C244        O254   1.261       .  A
C244        O245   1.264       .  A
C244       C1489   1.464       .  S
O245       Al247   1.918       .  S
O246        C248   1.262       .  A
O246       Al247   1.924       .  S
Al247       O255   1.926       .  S
Al247       O257   1.918       .  S
Al247       O256   1.796       .  S
C248        O261   1.261       .  A
C248       C1477   1.493       .  S
O249        C259   1.266       .  A
O249       Al251   1.928       .  S
O250       C2351   1.261   1_554  A
O250       Al260   1.910       .  S
Al251       O261   1.922       .  S
Al251      O2331   1.894   1_554  S
Al251      O2352   1.922       .  S
Al251       O256   1.788       .  S
O252        C259   1.262       .  A
O252       Al260   1.917       .  S
O253        C262   1.255       .  A
O253       Al260   1.892       .  S
O254       Al260   1.885       .  S
O255        C262   1.261       .  A
O256       Al260   1.789       .  S
O257        C258   1.265       .  A
C258       O2331   1.262   1_554  A
C258       C3733   1.475   1_554  S
C259       C1468   1.485       .  S
C262       C1525   1.484       .  S
C263        O264   1.262       .  A
C263       O2338   1.261       .  A
C263       C1504   1.481       .  S
O264      Al2339   1.911       .  S
O265        C280   1.259       .  A
O265       Al273   1.884       .  S
C266        O276   1.264       .  A
C266        O267   1.268       .  A
C266       C1501   1.480       .  S
O267       Al269   1.929       .  S
O268        C270   1.255       .  A
O268       Al269   1.880       .  S
Al269       O277   1.881       .  S
Al269       O279   1.897       .  S
Al269       O278   1.789       .  S
C270        O283   1.259       .  A
C270       C1657   1.479       .  S
O271        C281   1.262       .  A
O271       Al273   1.927       .  S
O272        C285   1.265       .  A
O272       Al282   1.905       .  S
Al273       O286   1.919       .  S
Al273       O283   1.914       .  S
Al273       O278   1.797       .  S
O274        C281   1.258       .  A
O274       Al282   1.900       .  S
O275        C284   1.254       .  A
O275       Al282   1.920       .  S
O276       Al282   1.889       .  S
O277        C284   1.250       .  A
O278       Al282   1.794       .  S
O279        C280   1.259       .  A
C280       C1492   1.468       .  S
C281       C1441   1.492       .  S
C284       C1429   1.491       .  S
C285        O286   1.268       .  A
C285       C1453   1.471       .  S
O287        C302   1.257       .  A
O287       Al295   1.874       .  S
C288        O298   1.260       .  A
C288        O289   1.265       .  A
C288       C1549   1.489       .  S
O289       Al291   1.921       .  S
O290        C292   1.256       .  A
O290       Al291   1.881       .  S
Al291       O299   1.880       .  S
Al291       O301   1.937       .  S
Al291       O300   1.786       .  S
C292        O305   1.262       .  A
C292       C1600   1.478       .  S
O293        C303   1.263       .  A
O293       Al295   1.912       .  S
O294        C307   1.261       .  A
O294       Al304   1.905       .  S
Al295       O308   1.913       .  S
Al295       O305   1.932       .  S
Al295       O300   1.787       .  S
O296        C303   1.266       .  A
O296       Al304   1.925       .  S
O297        C306   1.263       .  A
O297       Al304   1.932       .  S
O298       Al304   1.891       .  S
O299        C306   1.256       .  A
O300       Al304   1.783       .  S
O301        C302   1.265       .  A
C302       C1540   1.468       .  S
C303       C1417   1.476   1_455  S
C306       C1432   1.474       .  S
C307        O308   1.262       .  A
C307       C1405   1.468       .  S
O309        C324   1.257       .  A
O309       Al317   1.874       .  S
C310        O320   1.264       .  A
C310        O311   1.270       .  A
C310       C1357   1.484       .  S
O311       Al313   1.926       .  S
O312        C314   1.254       .  A
O312       Al313   1.870       .  S
Al313       O321   1.891       .  S
Al313       O323   1.907       .  S
Al313       O322   1.786       .  S
C314        O327   1.261       .  A
C314       C1336   1.481       .  S
O315        C325   1.256       .  A
O315       Al317   1.912       .  S
O316        C329   1.265       .  A
O316       Al326   1.892       .  S
Al317       O330   1.920       .  S
Al317       O327   1.918       .  S
Al317       O322   1.790       .  S
O318        C325   1.258       .  A
O318       Al326   1.904       .  S
O319        C328   1.255       .  A
O319       Al326   1.918       .  S
O320       Al326   1.877       .  S
O321        C328   1.250       .  A
O322       Al326   1.795       .  S
O323        C324   1.260       .  A
C324       C1372   1.473       .  S
C325       C1393   1.487       .  S
C328       C1381   1.471       .  S
C329        O330   1.269       .  A
C329       C1345   1.462       .  S
O331        C346   1.258       .  A
O331       Al339   1.884       .  S
C332        O342   1.262       .  A
C332        O333   1.264       .  A
C332       C1309   1.476       .  S
O333       Al335   1.925       .  S
O334        C336   1.259       .  A
O334       Al335   1.883       .  S
Al335       O343   1.885       .  S
Al335       O345   1.926       .  S
Al335       O344   1.790       .  S
C336        O349   1.264       .  A
C336       C1297   1.485       .  S
O337        C347   1.262       .  A
O337       Al339   1.912       .  S
O338        C351   1.262       .  A
O338       Al348   1.906       .  S
Al339       O352   1.912       .  S
Al339       O349   1.934       .  S
Al339       O344   1.785       .  S
O340        C347   1.264       .  A
O340       Al348   1.929       .  S
O341        C350   1.263       .  A
O341       Al348   1.929       .  S
O342       Al348   1.883       .  S
O343        C350   1.257       .  A
O344       Al348   1.788       .  S
O345        C346   1.261       .  A
C346       C1324   1.477       .  S
C347       C1465   1.483       .  S
C350       C1384   1.480       .  S
C351        O352   1.264       .  A
C351       C1456   1.470       .  S
O353        C368   1.259       .  A
O353      Al2449   1.872   1_554  S
C354        O364   1.263       .  A
C354        O355   1.266       .  A
C354       C1276   1.451       .  S
O355       Al357   1.908       .  S
O356        C358   1.256       .  A
O356       Al357   1.892       .  S
Al357       O365   1.887       .  S
Al357       O367   1.893       .  S
Al357       O366   1.793       .  S
C358        O371   1.259       .  A
C358       C1237   1.493       .  S
O359        C369   1.262       .  A
O359       Al361   1.920       .  S
O360        C373   1.263       .  A
O360       Al370   1.894       .  S
Al361       O374   1.915       .  S
Al361       O371   1.924       .  S
Al361      O2441   1.868       .  S
Al361       O366   1.794       .  S
O362        C369   1.260       .  A
O362       Al370   1.911       .  S
O363        C372   1.252       .  A
O363       Al370   1.912       .  S
O364       Al370   1.864       .  S
O365        C372   1.251       .  A
O366       Al370   1.797       .  S
O367       C2456   1.258       .  A
C368       O2455   1.260   1_554  A
C368       C1285   1.480       .  S
C369       C1261   1.492       .  S
C372       C1249   1.491       .  S
C373        O374   1.266       .  A
C373       C3436   1.461       .  S
O375        C390   1.260       .  A
O375       Al383   1.909       .  S
C376        O386   1.265       .  A
C376        O377   1.263       .  A
C376       C1213   1.475       .  S
O377      Al2467   1.896   1_554  S
O378        C380   1.261       .  A
O378       Al379   1.913       .  S
Al379       O387   1.891       .  S
Al379       O389   1.905       .  S
Al379      O2465   1.891       .  S
Al379       O388   1.789       .  S
C380        O393   1.264       .  A
C380       C1204   1.477       .  S
O381        C391   1.257       .  A
O381       Al383   1.906       .  S
O382        C395   1.260       .  A
O382       Al392   1.903       .  S
Al383       O396   1.901       .  S
Al383       O393   1.918       .  S
Al383       O388   1.791       .  S
O384        C391   1.263       .  A
O384       Al392   1.914       .  S
O385        C394   1.260       .  A
O385       Al392   1.923       .  S
O386      Al2480   1.920   1_554  S
O387        C394   1.256       .  A
O388       Al392   1.791       .  S
O389        C390   1.260       .  A
C390       C1225   1.467       .  S
C391       C3601   1.490       .  S
Al392      O2474   1.918       .  S
C394       C1252   1.483       .  S
C395        O396   1.264       .  A
C395       C1408   1.477       .  S
O397        C412   1.261       .  A
O397       Al405   1.886       .  S
C398        O408   1.260       .  A
C398        O399   1.266       .  A
C398       C1228   1.474       .  S
O399       Al401   1.922       .  S
O400        C402   1.262       .  A
O400       Al401   1.920       .  S
Al401       O409   1.920       .  S
Al401       O411   1.922       .  S
Al401       O410   1.792       .  S
C402        O415   1.257       .  A
C402       C1189   1.491       .  S
O403        C413   1.262       .  A
O403       Al405   1.906       .  S
O404        C417   1.256       .  A
O404       Al414   1.897       .  S
Al405       O418   1.911       .  S
Al405       O415   1.901       .  S
Al405       O410   1.792       .  S
O406        C413   1.266       .  A
O406       Al414   1.926       .  S
O407        C416   1.256       .  A
O407       Al414   1.894       .  S
O408       Al414   1.876       .  S
O409        C416   1.260       .  A
O410       Al414   1.787       .  S
O411        C412   1.267       .  A
C412       C1165   1.477       .  S
C413       C1420   1.477       .  S
C416       C1177   1.487       .  S
C417        O418   1.261       .  A
C417       C1216   1.472       .  S
O419        C434   1.261       .  A
O419       Al427   1.883       .  S
C420        O430   1.265       .  A
C420        O421   1.267       .  A
C420       C1288   1.454       .  S
O421       Al423   1.910       .  S
O422        C424   1.260       .  A
O422       Al423   1.911       .  S
Al423       O431   1.918       .  S
Al423       O433   1.886       .  S
Al423       O432   1.798       .  S
C424        O437   1.253       .  A
C424       C1888   1.490       .  S
O425        C435   1.261       .  A
O425       Al427   1.933       .  S
O426        C439   1.267       .  A
O426       Al436   1.900       .  S
Al427       O440   1.888       .  S
Al427       O437   1.887       .  S
Al427       O432   1.790       .  S
O428        C435   1.254       .  A
O428       Al436   1.895       .  S
O429        C438   1.249       .  A
O429       Al436   1.886       .  S
O430       Al436   1.874       .  S
O431        C438   1.254       .  A
O432       Al436   1.790       .  S
O433        C434   1.258       .  A
C434       C1156   1.462       .  S
C435       C1396   1.487       .  S
C438       C1180   1.493       .  S
C439        O440   1.261       .  A
C439       C1273   1.474       .  S
O441        C456   1.258       .  A
O441       Al449   1.874       .  S
C442        O452   1.261       .  A
C442        O443   1.266       .  A
C442       C1909   1.450       .  S
O443       Al445   1.916       .  S
O444        C446   1.263       .  A
O444       Al445   1.903       .  S
Al445       O453   1.917       .  S
Al445       O455   1.904       .  S
Al445       O454   1.783       .  S
C446        O459   1.263       .  A
C446       C1240   1.497       .  S
O447        C457   1.263       .  A
O447       Al449   1.928       .  S
O448        C461   1.263       .  A
O448       Al458   1.889       .  S
Al449       O462   1.920       .  S
Al449       O459   1.925       .  S
Al449       O454   1.773       .  S
O450        C457   1.258       .  A
O450       Al458   1.903       .  S
O451        C460   1.257       .  A
O451       Al458   1.897       .  S
O452       Al458   1.861       .  S
O453        C460   1.259       .  A
O454       Al458   1.780       .  S
O455        C456   1.260       .  A
C456       C1153   1.459       .  S
C457       C1744   1.479       .  S
C460       C1141   1.485       .  S
C461        O462   1.270       .  A
C461       C1900   1.478       .  S
O463        C478   1.261       .  A
O463       Al471   1.893       .  S
C464        O474   1.262       .  A
C464        O465   1.265       .  A
C464       C1876   1.463       .  S
O465       Al467   1.922       .  S
O466        C468   1.261       .  A
O466       Al467   1.905       .  S
Al467       O475   1.912       .  S
Al467       O477   1.908       .  S
Al467       O476   1.785       .  S
C468        O481   1.261       .  A
C468       C1129   1.479       .  S
O469        C479   1.263       .  A
O469       Al471   1.925       .  S
O470        C483   1.262       .  A
O470       Al480   1.896       .  S
Al471       O484   1.913       .  S
Al471       O481   1.909       .  S
Al471       O476   1.780       .  S
O472        C479   1.260       .  A
O472       Al480   1.908       .  S
O473        C482   1.257       .  A
O473       Al480   1.903       .  S
O474       Al480   1.882       .  S
O475        C482   1.261       .  A
O476       Al480   1.776       .  S
O477        C478   1.261       .  A
C478       C1117   1.477       .  S
C479       C2008   1.482       .  S
C482       C1144   1.495       .  S
C483        O484   1.264       .  A
C483       C1864   1.462       .  S
O485       C2588   1.261       .  A
O485      Al2581   1.892       .  S
C486        O496   1.261       .  A
C486        O487   1.267       .  A
C486       C1093   1.469       .  S
O487       Al489   1.935       .  S
O488        C490   1.261       .  A
O488       Al489   1.900       .  S
Al489       O497   1.918       .  S
Al489       O499   1.916       .  S
Al489       O498   1.789       .  S
C490        O503   1.263       .  A
C490       C1840   1.485       .  S
O491        C501   1.263       .  A
O491       Al493   1.930       .  S
O492       C2593   1.261   1_554  A
O492       Al502   1.889       .  S
Al493       O503   1.918       .  S
Al493      O2573   1.891   1_554  S
Al493      O2594   1.921   1_554  S
Al493       O498   1.782       .  S
O494        C501   1.260       .  A
O494       Al502   1.903       .  S
O495        C504   1.258       .  A
O495       Al502   1.899       .  S
O496       Al502   1.870       .  S
O497        C504   1.260       .  A
O498       Al502   1.781       .  S
O499        C500   1.262       .  A
C500       O2573   1.260   1_554  A
C500       C3208   1.478   1_554  S
C501       C1072   1.492       .  S
C504       C1081   1.478       .  S
C505        O506   1.266       .  A
C505       O2580   1.259       .  A
C505       C1108   1.458       .  S
O506      Al2581   1.921       .  S
O507        C522   1.259       .  A
O507       Al515   1.875       .  S
C508        O518   1.263       .  A
C508        O509   1.266       .  A
C508       C1048   1.471       .  S
O509      Al2599   1.925       .  S
O510       C2600   1.261       .  A
O510      Al2599   1.917       .  S
Al511       O519   1.923       .  S
Al511       O521   1.921       .  S
Al511      O2597   1.927   1_554  S
Al511      O2598   1.907       .  S
Al511       O520   1.790       .  S
C512        O525   1.259       .  A
C512       O2598   1.260       .  A
C512       C3289   1.485       .  S
O513        C523   1.262       .  A
O513       Al515   1.915       .  S
O514        C527   1.262       .  A
O514       Al524   1.901       .  S
Al515       O528   1.904       .  S
Al515       O525   1.904       .  S
Al515       O520   1.781       .  S
O516        C523   1.262       .  A
O516       Al524   1.910       .  S
O517        C526   1.256       .  A
O517       Al524   1.887       .  S
O518      Al2612   1.876       .  S
O519        C526   1.261       .  A
O520       Al524   1.777       .  S
O521        C522   1.266       .  A
C522       C1168   1.464       .  S
C523       C1033   1.479       .  S
Al524      O2606   1.871   1_554  S
C526       C1084   1.489       .  S
C527        O528   1.263       .  A
C527       C1057   1.470       .  S
O529        C544   1.264       .  A
O529       Al537   1.901       .  S
C530        O540   1.256       .  A
C530        O531   1.267       .  A
C530       C1000   1.473       .  S
O531       Al533   1.926       .  S
O532        C534   1.258       .  A
O532       Al533   1.900       .  S
Al533       O541   1.915       .  S
Al533       O543   1.914       .  S
Al533       O542   1.793       .  S
C534        O547   1.258       .  A
C534       C2017   1.489       .  S
O535        C545   1.266       .  A
O535       Al537   1.934       .  S
O536        C549   1.255       .  A
O536       Al546   1.868       .  S
Al537       O550   1.909       .  S
Al537       O547   1.906       .  S
Al537       O542   1.787       .  S
O538        C545   1.260       .  A
O538       Al546   1.896       .  S
O539        C548   1.254       .  A
O539       Al546   1.892       .  S
O540       Al546   1.846       .  S
O541        C548   1.257       .  A
O542       Al546   1.786       .  S
O543        C544   1.264       .  A
C544       C1024   1.468       .  S
C545        C973   1.487       .  S
C548        C985   1.478       .  S
C549        O550   1.261       .  A
C549       C1009   1.449       .  S
O551        C566   1.261       .  A
O551       Al559   1.883       .  S
C552        O562   1.263       .  A
C552        O553   1.267       .  A
C552        C952   1.477       .  S
O553       Al555   1.925       .  S
O554        C556   1.257       .  A
O554       Al555   1.906       .  S
Al555       O563   1.903       .  S
Al555       O565   1.928       .  S
Al555       O564   1.787       .  S
C556        O569   1.254       .  A
C556       C1333   1.469       .  S
O557        C567   1.263       .  A
O557       Al559   1.901       .  S
O558        C571   1.262       .  A
O558       Al568   1.916       .  S
Al559       O572   1.896       .  S
Al559       O569   1.897       .  S
Al559       O564   1.786       .  S
O560        C567   1.265       .  A
O560       Al568   1.923       .  S
O561        C570   1.259       .  A
O561       Al568   1.900       .  S
O562       Al568   1.893       .  S
O563        C570   1.257       .  A
O564       Al568   1.786       .  S
O565        C566   1.267       .  A
C566        C937   1.478       .  S
C567        C928   1.468       .  S
C570        C988   1.479       .  S
C571        O572   1.259       .  A
C571        C961   1.488       .  S
O573        C588   1.269       .  A
O573       Al581   1.916       .  S
C574        O584   1.271       .  A
C574        O575   1.264       .  A
C574       C2077   1.471       .  S
O575      Al2665   1.882       .  S
O576       C2666   1.255       .  A
O576      Al2665   1.899       .  S
Al577       O585   1.919       .  S
Al577       O587   1.908       .  S
Al577      O2663   1.881   1_554  S
Al577      O2664   1.901       .  S
Al577       O586   1.796       .  S
C578        O591   1.264       .  A
C578       O2664   1.256       .  A
C578       C3001   1.497   1_454  S
O579        C589   1.261       .  A
O579       Al581   1.925       .  S
O580        C593   1.261       .  A
O580       Al590   1.909       .  S
Al581       O594   1.879       .  S
Al581       O591   1.935       .  S
Al581       O586   1.791       .  S
O582        C589   1.257       .  A
O582       Al590   1.895       .  S
O583        C592   1.252       .  A
O583       Al590   1.899       .  S
O584      Al2678   1.933       .  S
O585        C592   1.254       .  A
O586       Al590   1.791       .  S
O587        C588   1.269       .  A
C588       C1021   1.470       .  S
C589       C1801   1.487       .  S
Al590      O2672   1.935   1_554  S
C592        C904   1.482       .  S
C593        O594   1.258       .  A
C593       C2065   1.475       .  S
O595       C2698   1.268       .  A
O595      Al2691   1.912       .  S
C596        O606   1.270       .  A
C596        O597   1.262       .  A
C596       C1984   1.489       .  S
O597       Al599   1.883       .  S
O598        C600   1.262       .  A
O598       Al599   1.928       .  S
Al599       O607   1.937       .  S
Al599       O609   1.897       .  S
Al599       O608   1.791       .  S
C600        O613   1.259       .  A
C600       C1300   1.482       .  S
O601        C611   1.262       .  A
O601       Al603   1.925       .  S
O602       C2703   1.261   1_554  A
O602       Al612   1.919       .  S
Al603       O613   1.914       .  S
Al603      O2683   1.911       .  S
Al603      O2704   1.868   1_554  S
Al603       O608   1.783       .  S
O604        C611   1.255       .  A
O604       Al612   1.875       .  S
O605        C614   1.253       .  A
O605       Al612   1.888       .  S
O606       Al612   1.929       .  S
O607        C614   1.261       .  A
O608       Al612   1.783       .  S
O609        C610   1.264       .  A
C610       O2683   1.267       .  A
C610       C2980   1.462   1_554  S
C611       C1852   1.475       .  S
C614        C901   1.474       .  S
C615        O616   1.253       .  A
C615       O2690   1.261       .  A
C615       C1972   1.473       .  S
O616      Al2691   1.861       .  S
O617        C632   1.265       .  A
O617       Al625   1.914       .  S
C618        O628   1.266       .  A
C618        O619   1.261       .  A
C618       C1369   1.468       .  S
O619       Al621   1.885       .  S
O620        C622   1.261       .  A
O620       Al621   1.916       .  S
Al621       O629   1.937       .  S
Al621       O631   1.904       .  S
Al621       O630   1.792       .  S
C622        O635   1.261       .  A
C622        C877   1.475       .  S
O623        C633   1.263       .  A
O623       Al625   1.933       .  S
O624        C637   1.263       .  A
O624       Al634   1.922       .  S
Al625       O638   1.879       .  S
Al625       O635   1.910       .  S
Al625       O630   1.786       .  S
O626        C633   1.257       .  A
O626       Al634   1.893       .  S
O627        C636   1.257       .  A
O627       Al634   1.891       .  S
O628       Al634   1.927       .  S
O629        C636   1.262       .  A
O630       Al634   1.785       .  S
O631        C632   1.264       .  A
C632        C940   1.465       .  S
C633       C1264   1.481       .  S
C636        C865   1.495       .  S
C637        O638   1.256       .  A
C637       C1360   1.464       .  S
O639        C654   1.261       .  A
O639       Al647   1.882       .  S
C640        O650   1.261       .  A
C640        O641   1.269       .  A
C640       C1321   1.484       .  S
O641       Al643   1.933       .  S
O642        C644   1.261       .  A
O642       Al643   1.902       .  S
Al643       O651   1.926       .  S
Al643       O653   1.914       .  S
Al643       O652   1.785       .  S
C644        O657   1.260       .  A
C644       C1957   1.500       .  S
O645        C655   1.267       .  A
O645       Al647   1.937       .  S
O646        C659   1.264       .  A
O646       Al656   1.905       .  S
Al647       O660   1.918       .  S
Al647       O657   1.919       .  S
Al647       O652   1.787       .  S
O648        C655   1.261       .  A
O648       Al656   1.891       .  S
O649        C658   1.255       .  A
O649       Al656   1.893       .  S
O650       Al656   1.879       .  S
O651        C658   1.260       .  A
O652       Al656   1.775       .  S
O653        C654   1.264       .  A
C654        C889   1.464       .  S
C655       C1444   1.492       .  S
C658        C868   1.484       .  S
C659        O660   1.265       .  A
C659       C1312   1.475       .  S
O661        C676   1.255       .  A
O661       Al669   1.863       .  S
C662        O672   1.264       .  A
C662        O663   1.270       .  A
C662       C1060   1.469       .  S
O663       Al665   1.933       .  S
O664        C666   1.255       .  A
O664       Al665   1.886       .  S
Al665       O673   1.899       .  S
Al665       O675   1.929       .  S
Al665       O674   1.784       .  S
C666        O679   1.261       .  A
C666       C1192   1.479       .  S
O667        C677   1.265       .  A
O667       Al669   1.921       .  S
O668        C681   1.264       .  A
O668       Al678   1.904       .  S
Al669       O682   1.916       .  S
Al669       O679   1.930       .  S
Al669       O674   1.782       .  S
O670        C677   1.264       .  A
O670       Al678   1.925       .  S
O671        C680   1.257       .  A
O671       Al678   1.915       .  S
O672       Al678   1.870       .  S
O673        C680   1.255       .  A
O674       Al678   1.782       .  S
O675        C676   1.267       .  A
C676       C1045   1.484       .  S
C677        C976   1.492   1_565  S
C680        C853   1.484       .  S
C681        O682   1.267       .  A
C681        C844   1.465       .  S
O683        C698   1.256       .  A
O683       Al691   1.865       .  S
C684        O694   1.265       .  A
C684        O685   1.267       .  A
C684       C1105   1.480       .  S
O685       Al687   1.914       .  S
O686        C688   1.257       .  A
O686       Al687   1.888       .  S
Al687       O695   1.893       .  S
Al687       O697   1.922       .  S
Al687       O696   1.787       .  S
C688        O701   1.262       .  A
C688       C1132   1.476       .  S
O689        C699   1.261       .  A
O689       Al691   1.912       .  S
O690        C703   1.266       .  A
O690       Al700   1.911       .  S
Al691       O704   1.907       .  S
Al691       O701   1.922       .  S
Al691       O696   1.786       .  S
O692        C699   1.263       .  A
O692       Al700   1.918       .  S
O693        C702   1.260       .  A
O693       Al700   1.927       .  S
O694       Al700   1.894       .  S
O695        C702   1.255       .  A
O696       Al700   1.787       .  S
O697        C698   1.261       .  A
C698       C1096   1.488       .  S
C699       C1612   1.483       .  S
C702        C856   1.472       .  S
C703        O704   1.265       .  A
C703        C829   1.471       .  S
O705        C720   1.265       .  A
O705       Al713   1.896       .  S
C706        O716   1.268       .  A
C706        O707   1.262       .  A
C706       C1708   1.470       .  S
O707       Al709   1.869       .  S
O708        C710   1.264       .  A
O708       Al709   1.922       .  S
Al709       O717   1.899       .  S
Al709       O719   1.906       .  S
Al709       O718   1.784       .  S
C710        O723   1.265       .  A
C710       C1561   1.494       .  S
O711        C721   1.259       .  A
O711       Al713   1.906       .  S
O712        C725   1.265       .  A
O712       Al722   1.920       .  S
Al713       O726   1.890       .  S
Al713       O723   1.930       .  S
Al713       O718   1.779       .  S
O714        C721   1.259       .  A
O714       Al722   1.899       .  S
O715        C724   1.257       .  A
O715       Al722   1.910       .  S
O716       Al722   1.927       .  S
O717        C724   1.257       .  A
O718       Al722   1.786       .  S
O719        C720   1.263       .  A
C720       C1696   1.473       .  S
C721        C925   1.481       .  S
C724        C820   1.483       .  S
C725        O726   1.261       .  A
C725        C805   1.474       .  S
O727        C742   1.258       .  A
O727       Al735   1.874       .  S
C728        O738   1.263       .  A
C728        O729   1.269       .  A
C728       C1633   1.467       .  S
O729       Al731   1.926       .  S
O730        C732   1.254       .  A
O730       Al731   1.894       .  S
Al731       O739   1.886       .  S
Al731       O741   1.920       .  S
Al731       O740   1.791       .  S
C732        O745   1.260       .  A
C732       C1480   1.490       .  S
O733        C743   1.264       .  A
O733       Al735   1.923       .  S
O734        C747   1.265       .  A
O734       Al744   1.911       .  S
Al735       O748   1.922       .  S
Al735       O745   1.928       .  S
Al735       O740   1.792       .  S
O736        C743   1.261       .  A
O736       Al744   1.911       .  S
O737        C746   1.254       .  A
O737       Al744   1.910       .  S
O738       Al744   1.870       .  S
O739        C746   1.251       .  A
O740       Al744   1.793       .  S
O741        C742   1.267       .  A
C742       C1624   1.489       .  S
C743       C1069   1.491       .  S
C746        C817   1.488       .  S
C747        O748   1.267       .  A
C747        C832   1.472       .  S
O749        C764   1.257       .  A
O749       Al757   1.887       .  S
C750        O760   1.263       .  A
C750        O751   1.264       .  A
C750       C1012   1.468       .  S
O751      Al2841   1.911   1_554  S
O752        C754   1.254       .  A
O752       Al753   1.865       .  S
Al753       O761   1.883       .  S
Al753       O763   1.882       .  S
Al753      O2839   1.916       .  S
Al753       O762   1.785       .  S
C754        O767   1.262       .  A
C754        C916   1.481       .  S
O755        C765   1.259       .  A
O755       Al757   1.911       .  S
O756        C769   1.264       .  A
O756       Al766   1.900       .  S
Al757       O770   1.923       .  S
Al757       O767   1.930       .  S
Al757       O762   1.795       .  S
O758        C765   1.259       .  A
O758       Al766   1.909       .  S
O759        C768   1.256       .  A
O759       Al766   1.923       .  S
O760      Al2854   1.875   1_554  S
O761        C768   1.252       .  A
O762       Al766   1.793       .  S
O763        C764   1.256       .  A
C764        C997   1.481       .  S
C765       C3124   1.486       .  S
Al766      O2848   1.884       .  S
C768        C793   1.486       .  S
C769        O770   1.270       .  A
C769        C841   1.466       .  S
O771        C786   1.266       .  A
O771      Al2867   1.923   1_554  S
C772        O782   1.268       .  A
C772        O773   1.261       .  A
C772        C964   1.467       .  S
O773       Al775   1.880       .  S
O774        C776   1.264       .  A
O774       Al775   1.929       .  S
Al775       O783   1.912       .  S
Al775       O785   1.899       .  S
Al775       O784   1.786       .  S
C776        O789   1.259       .  A
C776        C880   1.474       .  S
O777        C787   1.259       .  A
O777       Al779   1.912       .  S
O778        C791   1.265       .  A
O778       Al788   1.925       .  S
Al779       O792   1.891       .  S
Al779       O789   1.905       .  S
Al779      O2859   1.920       .  S
Al779       O784   1.782       .  S
O780        C787   1.262       .  A
O780       Al788   1.898       .  S
O781        C790   1.259       .  A
O781       Al788   1.911       .  S
O782       Al788   1.937       .  S
O783        C790   1.260       .  A
O784       Al788   1.783       .  S
O785       C2874   1.260       .  A
C786       O2873   1.260   1_554  A
C786        C949   1.475       .  S
C787       C1672   1.491       .  S
C790        C796   1.480       .  S
C791        O792   1.261       .  A
C791       C2896   1.481       .  S
C793        C794   1.404       .  A
C793        C798   1.419       .  A
C794        C795   1.396       .  A
C794        H803   1.084       .  S
C795        C796   1.412       .  A
C795        S799   1.800       .  S
C796        C797   1.403       .  A
C797        C798   1.406       .  A
C797       H2892   1.084       .  S
C798       S2888   1.801       .  S
S799        H802   1.407       .  S
S800       C2886   1.802   1_554  S
S800        H801   1.408       .  S
H804       C2885   1.084       .  S
C805        C806   1.400       .  A
C805        C810   1.411       .  A
C806        C807   1.396       .  A
C806        H815   1.084       .  S
C807        C808   1.413       .  A
C807        S811   1.798       .  S
C808       C2879   1.481   1_554  S
C808        C809   1.405       .  A
C809        C810   1.405       .  A
C809        H816   1.083   1_554  S
C810        S812   1.807       .  S
S811        H814   1.405       .  S
S812        H813   1.406   1_554  S
C817        C818   1.409       .  A
C817        C822   1.415       .  A
C818        C819   1.405   1_565  A
C818        H827   1.083       .  S
C819        C820   1.413       .  A
C819        S823   1.800       .  S
C820        C821   1.405       .  A
C821        C822   1.397   1_545  A
C821        H828   1.084       .  S
C822        S824   1.805       .  S
S823        H826   1.407       .  S
S824        H825   1.408       .  S
C829        C830   1.401       .  A
C829        C834   1.409       .  A
C830        C831   1.393       .  A
C830        H839   1.085       .  S
C831        C832   1.410       .  A
C831        S835   1.803       .  S
C832        C833   1.405       .  A
C833        C834   1.409       .  A
C833        H840   1.083       .  S
C834        S836   1.805       .  S
S835        H838   1.406       .  S
S836        H837   1.407       .  S
C841        C842   1.403       .  A
C841        C846   1.408   1_545  A
C842        C843   1.402       .  A
C842        H851   1.084       .  S
C843        C844   1.411   1_545  A
C843        S847   1.801       .  S
C844        C845   1.401       .  A
C845        C846   1.393       .  A
C845        H852   1.085       .  S
C846        S848   1.804       .  S
S847        H850   1.404   1_545  S
S848        H849   1.406       .  S
C853        C854   1.408       .  A
C853        C858   1.415       .  A
C854        C855   1.402       .  A
C854        H863   1.084       .  S
C855        C856   1.408       .  A
C855        S859   1.804       .  S
C856        C857   1.403       .  A
C857        C858   1.402       .  A
C857        H864   1.085       .  S
C858        S860   1.804       .  S
S859        H862   1.405       .  S
S860        H861   1.407       .  S
C865        C866   1.410       .  A
C865        C870   1.416       .  A
C866        C867   1.410   1_655  A
C866        H875   1.083       .  S
C867        C868   1.413       .  A
C867        S871   1.798       .  S
C868        C869   1.401       .  A
C869        C870   1.395   1_455  A
C869        H876   1.085       .  S
C870        S872   1.797       .  S
S871        H874   1.404       .  S
S872        H873   1.405       .  S
C877        C878   1.401       .  A
C877        C882   1.414       .  A
C878        C879   1.401       .  A
C878        H887   1.082       .  S
C879        C880   1.412       .  A
C879        S883   1.799       .  S
C880        C881   1.401       .  A
C881        C882   1.402       .  A
C881        H888   1.084       .  S
C882        S884   1.800       .  S
S883        H886   1.405       .  S
S884        H885   1.405       .  S
C889        C890   1.403       .  A
C889        C894   1.413       .  A
C890        C891   1.400       .  A
C890        H899   1.083       .  S
C891        C892   1.406       .  A
C891        S895   1.807       .  S
C892       C2698   1.459       .  S
C892        C893   1.398       .  A
C893        C894   1.396       .  A
C893        H900   1.084       .  S
C894        S896   1.806       .  S
S895        H898   1.407       .  S
S896        H897   1.401       .  S
C901        C902   1.402       .  A
C901        C906   1.412       .  A
C902        C903   1.402       .  A
C902        H911   1.084       .  S
C903        C904   1.414       .  A
C903        S907   1.802       .  S
C904        C905   1.405       .  A
C905        C906   1.404       .  A
C905       H3000   1.084   1_554  S
C906       S2996   1.805   1_554  S
S907        H910   1.407       .  S
S908       C2994   1.805       .  S
S908        H909   1.405       .  S
H912       C2993   1.084       .  S
C913       C2666   1.493   1_655  S
C913        C918   1.421       .  A
C913       C3002   1.411       .  A
C914        C915   1.414   1_554  A
C914       C3001   1.412   1_554  A
C914        H923   1.083       .  S
C915       C3004   1.413       .  A
C915        S919   1.803   1_556  S
C916        C917   1.400       .  A
C916       C3003   1.412       .  A
C917        C918   1.393       .  A
C917        H924   1.085       .  S
C918        S920   1.805       .  S
S919        H922   1.405       .  S
S920        H921   1.399   1_655  S
C925        C926   1.408       .  A
C925        C930   1.413       .  A
C926        C927   1.400       .  A
C926        H935   1.084       .  S
C927        C928   1.409       .  A
C927        S931   1.806       .  S
C928        C929   1.403       .  A
C929        C930   1.401       .  A
C929        H936   1.084       .  S
C930        S932   1.804       .  S
S931        H934   1.404       .  S
S932        H933   1.407       .  S
C937        C938   1.406       .  A
C937        C942   1.415       .  A
C938        C939   1.400       .  A
C938        H947   1.083       .  S
C939        C940   1.409       .  A
C939        S943   1.801       .  S
C940        C941   1.400       .  A
C941        C942   1.397       .  A
C941        H948   1.084       .  S
C942        S944   1.805       .  S
S943        H946   1.404       .  S
S944        H945   1.406       .  S
C949        C950   1.397       .  A
C949        C954   1.413       .  A
C950        C951   1.393       .  A
C950        H959   1.079       .  S
C951        C952   1.410       .  A
C951        S955   1.794       .  S
C952        C953   1.406       .  A
C953        C954   1.405       .  A
C953        H960   1.084       .  S
C954        S956   1.801       .  S
S955        H958   1.405       .  S
S956        H957   1.405       .  S
C961        C962   1.410       .  A
C961        C966   1.417       .  A
C962        C963   1.394       .  A
C962        H971   1.083       .  S
C963        C964   1.406       .  A
C963        S967   1.807       .  S
C964        C965   1.402       .  A
C965        C966   1.403       .  A
C965        H972   1.079       .  S
C966        S968   1.801       .  S
S967        H970   1.404       .  S
S968        H969   1.404       .  S
C973        C974   1.402       .  A
C973        C978   1.414       .  A
C974        C975   1.393       .  A
C974        H983   1.082       .  S
C975        C976   1.416       .  A
C975        S979   1.802   1_545  S
C976        C977   1.411       .  A
C977        C978   1.412       .  A
C977        H984   1.084       .  S
C978        S980   1.801       .  S
S979        H982   1.394       .  S
S980        H981   1.407       .  S
C985        C986   1.404       .  A
C985        C990   1.411       .  A
C986        C987   1.408       .  A
C986        H995   1.084       .  S
C987        C988   1.417       .  A
C987        S991   1.804       .  S
C988        C989   1.401       .  A
C989        C990   1.393       .  A
C989        H996   1.085       .  S
C990        S992   1.801       .  S
S991        H994   1.403       .  S
S992        H993   1.406       .  S
C997        C998   1.412       .  A
C997       C1002   1.414       .  A
C998        C999   1.403       .  A
C998       H1007   1.083       .  S
C999       C1000   1.408       .  A
C999       S1003   1.808       .  S
C1000      C1001   1.404       .  A
C1001      C1002   1.388       .  A
C1001      H1008   1.085       .  S
C1002      S1004   1.802       .  S
S1003      H1006   1.407       .  S
S1004      H1005   1.402       .  S
C1009      C1010   1.393       .  A
C1009      C1014   1.407       .  A
C1010      C1011   1.392       .  A
C1010      H1019   1.081       .  S
C1011      C1012   1.417       .  A
C1011      S1015   1.809       .  S
C1012      C1013   1.405       .  A
C1013      C1014   1.393       .  A
C1013      H1020   1.084       .  S
C1014      S1016   1.803       .  S
S1015      H1018   1.406       .  S
S1016      H1017   1.402       .  S
C1021      C1022   1.404   1_455  A
C1021      C1026   1.411       .  A
C1022      C1023   1.404       .  A
C1022      H1031   1.084       .  S
C1023      C1024   1.411       .  A
C1023      S1027   1.801       .  S
C1024      C1025   1.398   1_655  A
C1025      C1026   1.394       .  A
C1025      H1032   1.085       .  S
C1026      S1028   1.801       .  S
S1027      H1030   1.406       .  S
S1028      H1029   1.407       .  S
C1033      C1034   1.403       .  A
C1033      C3126   1.416       .  A
C1034      C1035   1.393       .  A
C1034      H1043   1.084       .  S
C1035      C1036   1.410   1_565  A
C1035      S1039   1.804   1_565  S
C1036      C2853   1.479   1_554  S
C1036      C3125   1.407   1_544  A
C1037      C1038   1.410       .  A
C1037      C3124   1.408   1_565  A
C1037      H1044   1.084       .  S
C1038      C3121   1.417       .  A
C1038      S1040   1.805       .  S
S1039      H1042   1.407       .  S
S1040      H1041   1.401       .  S
C1045      C1046   1.408       .  A
C1045      C1050   1.419       .  A
C1046      C1047   1.403       .  A
C1046      H1055   1.084       .  S
C1047      C1048   1.411       .  A
C1047      S1051   1.798       .  S
C1048      C1049   1.397       .  A
C1049      C1050   1.389       .  A
C1049      H1056   1.082       .  S
C1050      S1052   1.805       .  S
S1051      H1054   1.406       .  S
S1052      H1053   1.408       .  S
C1057      C1058   1.406       .  A
C1057      C1062   1.411       .  A
C1058      C1059   1.403       .  A
C1058      H1067   1.084       .  S
C1059      C1060   1.412       .  A
C1059      S1063   1.803       .  S
C1060      C1061   1.399       .  A
C1061      C1062   1.390       .  A
C1061      H1068   1.080       .  S
C1062      S1064   1.810       .  S
S1063      H1066   1.407       .  S
S1064      H1065   1.408       .  S
C1069      C1070   1.409       .  A
C1069      C1074   1.416       .  A
C1070      C1071   1.411       .  A
C1070      H1079   1.083       .  S
C1071      C1072   1.416       .  A
C1071      S1075   1.798       .  S
C1072      C1073   1.404       .  A
C1073      C1074   1.394       .  A
C1073      H1080   1.085       .  S
C1074      S1076   1.804       .  S
S1075      H1078   1.406       .  S
S1076      H1077   1.400       .  S
C1081      C1082   1.399       .  A
C1081      C1086   1.414       .  A
C1082      C1083   1.392       .  A
C1082      H1091   1.085       .  S
C1083      C1084   1.419       .  A
C1083      S3175   1.806   1_554  S
C1084      C1085   1.409       .  A
C1085      C1086   1.411       .  A
C1085      H1092   1.083       .  S
C1086      S1088   1.802       .  S
S1087      C3171   1.805       .  S
S1087      H1090   1.405       .  S
S1088      H1089   1.406       .  S
C1093      C1094   1.402       .  A
C1093      C1098   1.408       .  A
C1094      C1095   1.406       .  A
C1094      H1103   1.084       .  S
C1095      C1096   1.421       .  A
C1095      S1099   1.799       .  S
C1096      C1097   1.405       .  A
C1097      C1098   1.387       .  A
C1097      H1104   1.084       .  S
C1098      S1100   1.801       .  S
S1099      H1102   1.407       .  S
S1100      H1101   1.407       .  S
C1105      C1106   1.407       .  A
C1105      C1110   1.415       .  A
C1106      C1107   1.393       .  A
C1106      H1115   1.084       .  S
C1107      C1108   1.404       .  A
C1107      S1111   1.801       .  S
C1108      C1109   1.399       .  A
C1109      C1110   1.399       .  A
C1109      H1116   1.084       .  S
C1110      S1112   1.801       .  S
S1111      H1114   1.405       .  S
S1112      H1113   1.408       .  S
C1117      C1118   1.404       .  A
C1117      C1122   1.413       .  A
C1118      C1119   1.404       .  A
C1118      H1127   1.082       .  S
C1119      C1120   1.415       .  A
C1119      S3211   1.808       .  S
C1120      C2588   1.478       .  S
C1120      C1121   1.400       .  A
C1121      C1122   1.393       .  A
C1121      H1128   1.077       .  S
C1122      S1124   1.801       .  S
S1123      C3207   1.808   1_554  S
S1123      H1126   1.407       .  S
S1124      H1125   1.407       .  S
C1129      C1130   1.405       .  A
C1129      C1134   1.410       .  A
C1130      C1131   1.398       .  A
C1130      H1139   1.084       .  S
C1131      C1132   1.411       .  A
C1131      S1135   1.806       .  S
C1132      C1133   1.406       .  A
C1133      C1134   1.408       .  A
C1133      H1140   1.083       .  S
C1134      S1136   1.807       .  S
S1135      H1138   1.407       .  S
S1136      H1137   1.407       .  S
C1141      C1142   1.402       .  A
C1141      C1146   1.413       .  A
C1142      C1143   1.392       .  A
C1142      H1151   1.084       .  S
C1143      C1144   1.421       .  A
C1143      S1147   1.804       .  S
C1144      C1145   1.411       .  A
C1145      C1146   1.407       .  A
C1145      H1152   1.083       .  S
C1146      S1148   1.801       .  S
S1147      H1150   1.405       .  S
S1148      H1149   1.407       .  S
C1153      C1154   1.399       .  A
C1153      C1158   1.410       .  A
C1154      C1155   1.392       .  A
C1154      H1163   1.085       .  S
C1155      C1156   1.411       .  A
C1155      S1159   1.801       .  S
C1156      C1157   1.401       .  A
C1157      C1158   1.398       .  A
C1157      H1164   1.084       .  S
C1158      S1160   1.806       .  S
S1159      H1162   1.406       .  S
S1160      H1161   1.407       .  S
C1165      C1166   1.405       .  A
C1165      C1170   1.414       .  A
C1166      C1167   1.398       .  A
C1166      H1175   1.084       .  S
C1167      C1168   1.410       .  A
C1167      S1171   1.806       .  S
C1168      C1169   1.400       .  A
C1169      C1170   1.399       .  A
C1169      H1176   1.083       .  S
C1170      S1172   1.804       .  S
S1171      H1174   1.407       .  S
S1172      H1173   1.407       .  S
C1177      C1178   1.403       .  A
C1177      C1182   1.414       .  A
C1178      C1179   1.399       .  A
C1178      H1187   1.083       .  S
C1179      C1180   1.418       .  A
C1179      S1183   1.805       .  S
C1180      C1181   1.408       .  A
C1181      C1182   1.409       .  A
C1181      H1188   1.084       .  S
C1182      S1184   1.801       .  S
S1183      H1186   1.408       .  S
S1184      H1185   1.407       .  S
C1189      C1190   1.406       .  A
C1189      C1194   1.421       .  A
C1190      C1191   1.410       .  A
C1190      H1199   1.083       .  S
C1191      C1192   1.412       .  A
C1191      S1195   1.807       .  S
C1192      C1193   1.398       .  A
C1193      C1194   1.403       .  A
C1193      H1200   1.083       .  S
C1194      S1196   1.810       .  S
S1195      H1198   1.407       .  S
S1196      H1197   1.407       .  S
C1201      C2600   1.488       .  S
C1201      C1206   1.415       .  A
C1201      C3290   1.408       .  A
C1202      C1203   1.399       .  A
C1202      C3289   1.407       .  A
C1202      H1211   1.084       .  S
C1203      C3292   1.408   1_554  A
C1203      S1207   1.804       .  S
C1204      C1205   1.405       .  A
C1204      C3291   1.409       .  A
C1205      C1206   1.407       .  A
C1205      H1212   1.083       .  S
C1206      S1208   1.804       .  S
S1207      H1210   1.406       .  S
S1208      H1209   1.407       .  S
C1213      C1214   1.402       .  A
C1213      C1218   1.410       .  A
C1214      C1215   1.406       .  A
C1214      H1223   1.083       .  S
C1215      C1216   1.413       .  A
C1215      S1219   1.805       .  S
C1216      C1217   1.397       .  A
C1217      C1218   1.392       .  A
C1217      H1224   1.085       .  S
C1218      S1220   1.786       .  S
S1219      H1222   1.407       .  S
S1220      H1221   1.405       .  S
C1225      C1226   1.400       .  A
C1225      C1230   1.411       .  A
C1226      C1227   1.399       .  A
C1226      H1235   1.084       .  S
C1227      C1228   1.415       .  A
C1227      S1231   1.804       .  S
C1228      C1229   1.402       .  A
C1229      C1230   1.398       .  A
C1229      H1236   1.084       .  S
C1230      S1232   1.802       .  S
S1231      H1234   1.407       .  S
S1232      H1233   1.406       .  S
C1237      C1238   1.407       .  A
C1237      C1242   1.416       .  A
C1238      C1239   1.416       .  A
C1238      H1247   1.082       .  S
C1239      C1240   1.419       .  A
C1239      S1243   1.806       .  S
C1240      C1241   1.404       .  A
C1241      C1242   1.397       .  A
C1241      H1248   1.084       .  S
C1242      S1244   1.802       .  S
S1243      H1246   1.407       .  S
S1244      H1245   1.405       .  S
C1249      C1250   1.404       .  A
C1249      C1254   1.421       .  A
C1250      C1251   1.396       .  A
C1250      H1259   1.082       .  S
C1251      C1252   1.413       .  A
C1251      S3343   1.804       .  S
C1252      C1253   1.404       .  A
C1253      C1254   1.408       .  A
C1253      H1260   1.084       .  S
C1254      S1256   1.802       .  S
S1255      C3339   1.805   1_554  S
S1255      H1258   1.407       .  S
S1256      H1257   1.403       .  S
C1261      C1262   1.410       .  A
C1261      C1266   1.415       .  A
C1262      C1263   1.411       .  A
C1262      H1271   1.083       .  S
C1263      C1264   1.415       .  A
C1263      S1267   1.803       .  S
C1264      C1265   1.400       .  A
C1265      C1266   1.397       .  A
C1265      H1272   1.084       .  S
C1266      S1268   1.803       .  S
S1267      H1270   1.402       .  S
S1268      H1269   1.407       .  S
C1273      C1274   1.407       .  A
C1273      C1278   1.421       .  A
C1274      C1275   1.399       .  A
C1274      H1283   1.084       .  S
C1275      C1276   1.409       .  A
C1275      S1279   1.807       .  S
C1276      C1277   1.394       .  A
C1277      C1278   1.387       .  A
C1277      H1284   1.085       .  S
C1278      S1280   1.814       .  S
S1279      H1282   1.399       .  S
S1280      H1281   1.407       .  S
C1285      C1286   1.406       .  A
C1285      C1290   1.419       .  A
C1286      C1287   1.389       .  A
C1286      H1295   1.084       .  S
C1287      C1288   1.405       .  A
C1287      S1291   1.804       .  S
C1288      C1289   1.396       .  A
C1289      C1290   1.397       .  A
C1289      H1296   1.084       .  S
C1290      S1292   1.796       .  S
S1291      H1294   1.406       .  S
S1292      H1293   1.402       .  S
C1297      C1298   1.403       .  A
C1297      C1302   1.418       .  A
C1298      C1299   1.397       .  A
C1298      H1307   1.084       .  S
C1299      C1300   1.410       .  A
C1299      S1303   1.798       .  S
C1300      C1301   1.403       .  A
C1301      C1302   1.407       .  A
C1301      H1308   1.079       .  S
C1302      S1304   1.802       .  S
S1303      H1306   1.405       .  S
S1304      H1305   1.402       .  S
C1309      C1310   1.398       .  A
C1309      C1314   1.415       .  A
C1310      C3399   1.390   1_554  A
C1310      H1319   1.081       .  S
C1311      C1312   1.414       .  A
C1311      C3398   1.390       .  A
C1311      S1315   1.802       .  S
C1312      C1313   1.405       .  A
C1313      C3402   1.403       .  A
C1313      H1320   1.084       .  S
C1314      C3401   1.405   1_554  A
C1314      S1316   1.803       .  S
S1315      H1318   1.396       .  S
S1316      H1317   1.407       .  S
C1321      C1322   1.408       .  A
C1321      C1326   1.416       .  A
C1322      C1323   1.403       .  A
C1322      H1331   1.085       .  S
C1323      C1324   1.412       .  A
C1323      S1327   1.798       .  S
C1324      C1325   1.398       .  A
C1325      C1326   1.393       .  A
C1325      H1332   1.083       .  S
C1326      S1328   1.804       .  S
S1327      H1330   1.405       .  S
S1328      H1329   1.408       .  S
C1333      C1334   1.398       .  A
C1333      C1338   1.410       .  A
C1334      C1335   1.393       .  A
C1334      H1343   1.084       .  S
C1335      C1336   1.415       .  A
C1335      S1339   1.802       .  S
C1336      C1337   1.408       .  A
C1337      C1338   1.406       .  A
C1337      H1344   1.083       .  S
C1338      S1340   1.801       .  S
S1339      H1342   1.407       .  S
S1340      H1341   1.406       .  S
C1345      C1346   1.401       .  A
C1345      C1350   1.410       .  A
C1346      C1347   1.398       .  A
C1346      H1355   1.084       .  S
C1347      C1348   1.410       .  A
C1347      S1351   1.805       .  S
C1348      C2461   1.461   1_554  S
C1348      C1349   1.401       .  A
C1349      C1350   1.397       .  A
C1349      H3444   1.085   1_554  S
C1350      S1352   1.805       .  S
S1351      H1354   1.406       .  S
S1352      H1353   1.404       .  S
H1356      C3437   1.085       .  S
C1357      C1358   1.410       .  A
C1357      C1362   1.416       .  A
C1358      C1359   1.398       .  A
C1358      H1367   1.084       .  S
C1359      C1360   1.408       .  A
C1359      S1363   1.803       .  S
C1360      C1361   1.396       .  A
C1361      C1362   1.395       .  A
C1361      H1368   1.078       .  S
C1362      S1364   1.802       .  S
S1363      H1366   1.403       .  S
S1364      H1365   1.406       .  S
C1369      C1370   1.401       .  A
C1369      C1374   1.412       .  A
C1370      C3459   1.402       .  A
C1370      H1379   1.084       .  S
C1371      C1372   1.415       .  A
C1371      C3458   1.401   1_554  A
C1371      S1375   1.801       .  S
C1372      C1373   1.402       .  A
C1373      C3462   1.393   1_554  A
C1373      H1380   1.084       .  S
C1374      C3461   1.394       .  A
C1374      S1376   1.804       .  S
S1375      H1378   1.404       .  S
S1376      H1377   1.404       .  S
C1381      C1382   1.401       .  A
C1381      C1386   1.410       .  A
C1382      C1383   1.399   1_655  A
C1382      H1391   1.083       .  S
C1383      C1384   1.416       .  A
C1383      S1387   1.805       .  S
C1384      C1385   1.406       .  A
C1385      C1386   1.403   1_455  A
C1385      H1392   1.084       .  S
C1386      S1388   1.803       .  S
S1387      H1390   1.404       .  S
S1388      H1389   1.404       .  S
C1393      C1394   1.401       .  A
C1393      C1398   1.417       .  A
C1394      C1395   1.395       .  A
C1394      H1403   1.084       .  S
C1395      C1396   1.418       .  A
C1395      S1399   1.804       .  S
C1396      C1397   1.405       .  A
C1397      C1398   1.409       .  A
C1397      H1404   1.082       .  S
C1398      S1400   1.798       .  S
S1399      H1402   1.397       .  S
S1400      H1401   1.406       .  S
C1405      C1406   1.399       .  A
C1405      C1410   1.410   1_455  A
C1406      C1407   1.397       .  A
C1406      H1415   1.081       .  S
C1407      C1408   1.417   1_455  A
C1407      S1411   1.802       .  S
C1408      C1409   1.403       .  A
C1409      C1410   1.399       .  A
C1409      H1416   1.084       .  S
C1410      S1412   1.801       .  S
S1411      H1414   1.407       .  S
S1412      H1413   1.404       .  S
C1417      C1418   1.401       .  A
C1417      C1422   1.407       .  A
C1418      C1419   1.397       .  A
C1418      H1427   1.084       .  S
C1419      C1420   1.410       .  A
C1419      S1423   1.803       .  S
C1420      C1421   1.407       .  A
C1421      C1422   1.411       .  A
C1421      H1428   1.083       .  S
C1422      S1424   1.802   1_655  S
S1423      H1426   1.407       .  S
S1424      H1425   1.407       .  S
C1429      C1430   1.408       .  A
C1429      C1434   1.419       .  A
C1430      C1431   1.402       .  A
C1430      H1439   1.083       .  S
C1431      C1432   1.408       .  A
C1431      S1435   1.808       .  S
C1432      C1433   1.401       .  A
C1433      C1434   1.405       .  A
C1433      H1440   1.084       .  S
C1434      S1436   1.799       .  S
S1435      H1438   1.407       .  S
S1436      H1437   1.407       .  S
C1441      C1442   1.412       .  A
C1441      C1446   1.415       .  A
C1442      C1443   1.415       .  A
C1442      H1451   1.083       .  S
C1443      C1444   1.416       .  A
C1443      S1447   1.800       .  S
C1444      C1445   1.403       .  A
C1445      C1446   1.386       .  A
C1445      H1452   1.082       .  S
C1446      S1448   1.803       .  S
S1447      H1450   1.407       .  S
S1448      H1449   1.396       .  S
C1453      C1454   1.403       .  A
C1453      C1458   1.410       .  A
C1454      C1455   1.404       .  A
C1454      H1463   1.084       .  S
C1455      C1456   1.411       .  A
C1455      S1459   1.797       .  S
C1456      C1457   1.399       .  A
C1457      C1458   1.395       .  A
C1457      H1464   1.084       .  S
C1458      S1460   1.799       .  S
S1459      H1462   1.405       .  S
S1460      H1461   1.407       .  S
C1465      C1466   1.403       .  A
C1465      C1470   1.413       .  A
C1466      C1467   1.402       .  A
C1466      H1475   1.084       .  S
C1467      C1468   1.412       .  A
C1467      S1471   1.799       .  S
C1468      C1469   1.405       .  A
C1469      C1470   1.408       .  A
C1469      H1476   1.082       .  S
C1470      S1472   1.800       .  S
S1471      H1474   1.406       .  S
S1472      H1473   1.406       .  S
C1477      C1478   1.407       .  A
C1477      C1482   1.414       .  A
C1478      C1479   1.405       .  A
C1478      H1487   1.084       .  S
C1479      C1480   1.413       .  A
C1479      S1483   1.803       .  S
C1480      C1481   1.408       .  A
C1481      C1482   1.410       .  A
C1481      H1488   1.084       .  S
C1482      S1484   1.800       .  S
S1483      H1486   1.406       .  S
S1484      H1485   1.406       .  S
C1489      C1490   1.399       .  A
C1489      C1494   1.410       .  A
C1490      C1491   1.395       .  A
C1490      H1499   1.081       .  S
C1491      C1492   1.411       .  A
C1491      S1495   1.805       .  S
C1492      C1493   1.405       .  A
C1493      C1494   1.401       .  A
C1493      H1500   1.084       .  S
C1494      S1496   1.805       .  S
S1495      H1498   1.404       .  S
S1496      H1497   1.404       .  S
C1501      C1502   1.402       .  A
C1501      C1506   1.414       .  A
C1502      C1503   1.393       .  A
C1502      H1511   1.081       .  S
C1503      C1504   1.413       .  A
C1503      S1507   1.803       .  S
C1504      C1505   1.407       .  A
C1505      C1506   1.407       .  A
C1505      H1512   1.084       .  S
C1506      S1508   1.803       .  S
S1507      H1510   1.407       .  S
S1508      H1509   1.407       .  S
C1513      C2479   1.488       .  S
C1513      C1514   1.401   1_656  A
C1513      C3606   1.418   1_655  A
C1514      C1515   1.397       .  A
C1514      H1523   1.065   1_455  S
C1515      C1516   1.407       .  A
C1515      S1519   1.802       .  S
C1516      C1517   1.402   1_554  A
C1517      C3606   1.404       .  A
C1517      H1524   1.083       .  S
C1518      C3601   1.420   1_455  A
C1518      C3605   1.403       .  A
C1518      S1520   1.800       .  S
S1519      H1522   1.404       .  S
S1520      H1521   1.407   1_455  S
C1525      C1526   1.403       .  A
C1525      C1530   1.414       .  A
C1526      C1527   1.399       .  A
C1526      H1535   1.085       .  S
C1527      C1528   1.418       .  A
C1527      S3619   1.805   1_554  S
C1528      C1529   1.409       .  A
C1529      C1530   1.409       .  A
C1529      H1536   1.084       .  S
C1530      S1532   1.802       .  S
S1531      C3615   1.805       .  S
S1531      H1534   1.408       .  S
S1532      H1533   1.404       .  S
C1537      C1538   1.402       .  A
C1537      C1542   1.417       .  A
C1538      C1539   1.394       .  A
C1538      H1547   1.084       .  S
C1539      C1540   1.409       .  A
C1539      S1543   1.803       .  S
C1540      C1541   1.401       .  A
C1541      C1542   1.403       .  A
C1541      H1548   1.084       .  S
C1542      S1544   1.799       .  S
S1543      H1546   1.403       .  S
S1544      H1545   1.407       .  S
C1549      C1550   1.408       .  A
C1549      C1554   1.417       .  A
C1550      C1551   1.401       .  A
C1550      H1559   1.083       .  S
C1551      C1552   1.412       .  A
C1551      S1555   1.802       .  S
C1552      C1553   1.399       .  A
C1553      C1554   1.397       .  A
C1553      H1560   1.082       .  S
C1554      S1556   1.797       .  S
S1555      H1558   1.406       .  S
S1556      H1557   1.407       .  S
C1561      C1562   1.405       .  A
C1561      C1566   1.414       .  A
C1562      C1563   1.401       .  A
C1562      H1571   1.085       .  S
C1563      C1564   1.420       .  A
C1563      S1567   1.804       .  S
C1564      C1565   1.412       .  A
C1565      C1566   1.409       .  A
C1565      H1572   1.083       .  S
C1566      S1568   1.799       .  S
S1567      H1570   1.409       .  S
S1568      H1569   1.406       .  S
C1573      C1574   1.404   1_565  A
C1573      C1578   1.412       .  A
C1574      C1575   1.402       .  A
C1574      H1583   1.083       .  S
C1575      C1576   1.414       .  A
C1575      S1579   1.803       .  S
C1576      C1577   1.402   1_545  A
C1577      C1578   1.400       .  A
C1577      H1584   1.083       .  S
C1578      S1580   1.805       .  S
S1579      H1582   1.405       .  S
S1580      H1581   1.407       .  S
C1585      C1586   1.404       .  A
C1585      C1590   1.414       .  A
C1586      C1587   1.393       .  A
C1586      H1595   1.084       .  S
C1587      C1588   1.408       .  A
C1587      S1591   1.803       .  S
C1588      C1589   1.405       .  A
C1589      C1590   1.407       .  A
C1589      H1596   1.084       .  S
C1590      S1592   1.802       .  S
S1591      H1594   1.406       .  S
S1592      H1593   1.406       .  S
C1597      C1598   1.406   1_545  A
C1597      C1602   1.411       .  A
C1598      C1599   1.398       .  A
C1598      H1607   1.084       .  S
C1599      C1600   1.412       .  A
C1599      S1603   1.807       .  S
C1600      C1601   1.406       .  A
C1601      C1602   1.408   1_565  A
C1601      H1608   1.082       .  S
C1602      S1604   1.806       .  S
S1603      H1606   1.407       .  S
S1604      H1605   1.407       .  S
C1609      C1610   1.402       .  A
C1609      C1614   1.415       .  A
C1610      C1611   1.397       .  A
C1610      H1619   1.083       .  S
C1611      C1612   1.409       .  A
C1611      S1615   1.798       .  S
C1612      C1613   1.407       .  A
C1613      C1614   1.409       .  A
C1613      H1620   1.084       .  S
C1614      S1616   1.804       .  S
S1615      H1618   1.407       .  S
S1616      H1617   1.404       .  S
C1621      C1622   1.405       .  A
C1621      C1626   1.414       .  A
C1622      C1623   1.396       .  A
C1622      H1631   1.082       .  S
C1623      C1624   1.420       .  A
C1623      S1627   1.813       .  S
C1624      C1625   1.408       .  A
C1625      C1626   1.403       .  A
C1625      H1632   1.084       .  S
C1626      S1628   1.801       .  S
S1627      H1630   1.407       .  S
S1628      H1629   1.408       .  S
C1633      C1634   1.400       .  A
C1633      C3726   1.409       .  A
C1634      C3723   1.392   1_554  A
C1634      H1643   1.081       .  S
C1635      C1636   1.412       .  A
C1635      C3722   1.390       .  A
C1635      S1639   1.810       .  S
C1636      C1637   1.408       .  A
C1637      C1638   1.403       .  A
C1637      H1644   1.084       .  S
C1638      C3721   1.410       .  A
C1638      S3728   1.803       .  S
S1639      H1642   1.407       .  S
S1640      C3726   1.803       .  S
S1640      H1641   1.407       .  S
C1645      C2346   1.479       .  S
C1645      C1646   1.404       .  A
C1645      C1650   1.414       .  A
C1646      C1647   1.400       .  A
C1646      H3743   1.084       .  S
C1647      C1648   1.414       .  A
C1647      S1651   1.806       .  S
C1648      C1649   1.404       .  A
C1649      C1650   1.403       .  A
C1649      H1656   1.084       .  S
C1650      S1652   1.805       .  S
S1651      H1654   1.407       .  S
S1652      H1653   1.407       .  S
H1655      C3734   1.084   1_554  S
C1657      C1658   1.405       .  A
C1657      C1662   1.413       .  A
C1658      C1659   1.409       .  A
C1658      H1667   1.084       .  S
C1659      C1660   1.417       .  A
C1659      S1663   1.801       .  S
C1660      C1661   1.402       .  A
C1661      C1662   1.389       .  A
C1661      H1668   1.084       .  S
C1662      S1664   1.801       .  S
S1663      H1666   1.408       .  S
S1664      H1665   1.402       .  S
C1669      C1670   1.399       .  A
C1669      C1674   1.412       .  A
C1670      C1671   1.405       .  A
C1670      H1679   1.084       .  S
C1671      C1672   1.425       .  A
C1671      S1675   1.801       .  S
C1672      C1673   1.404       .  A
C1673      C1674   1.396       .  A
C1673      H1680   1.084       .  S
C1674      S1676   1.800       .  S
S1675      H1678   1.406       .  S
S1676      H1677   1.405       .  S
C1681      C1682   1.404       .  A
C1681      C1686   1.412       .  A
C1682      C1683   1.406   1_545  A
C1682      H1691   1.084       .  S
C1683      C1684   1.416       .  A
C1683      S1687   1.799       .  S
C1684      C1685   1.405       .  A
C1685      C1686   1.398   1_565  A
C1685      H1692   1.084       .  S
C1686      S1688   1.802       .  S
S1687      H1690   1.407       .  S
S1688      H1689   1.407       .  S
C1693      C1694   1.402       .  A
C1693      C1698   1.407       .  A
C1694      C3783   1.401       .  A
C1694      H1703   1.084       .  S
C1695      C1696   1.416       .  A
C1695      C3782   1.405   1_554  A
C1695      S1699   1.803       .  S
C1696      C1697   1.403       .  A
C1697      C3786   1.385   1_554  A
C1697      H1704   1.085       .  S
C1698      C3785   1.386       .  A
C1698      S1700   1.800       .  S
S1699      H1702   1.406       .  S
S1700      H1701   1.407       .  S
C1705      C1706   1.399       .  A
C1705      C1710   1.412       .  A
C1706      C1707   1.383       .  A
C1706      H1715   1.085       .  S
C1707      C1708   1.411       .  A
C1707      S1711   1.799       .  S
C1708      C1709   1.407       .  A
C1709      C1710   1.404       .  A
C1709      H1716   1.084       .  S
C1710      S1712   1.802       .  S
S1711      H1714   1.407       .  S
S1712      H1713   1.406       .  S
C1717      C1718   1.399       .  A
C1717      C1722   1.406       .  A
C1718      C1719   1.393       .  A
C1718      H1727   1.085       .  S
C1719      C1720   1.413       .  A
C1719      S1723   1.805       .  S
C1720      C1721   1.404       .  A
C1721      C1722   1.403       .  A
C1721      H1728   1.083       .  S
C1722      S1724   1.804       .  S
S1723      H1726   1.407       .  S
S1724      H1725   1.407       .  S
C1729      C1730   1.397       .  A
C1729      C1734   1.412       .  A
C1730      C1731   1.404       .  A
C1730      H1739   1.084       .  S
C1731      C1732   1.427       .  A
C1731      S1735   1.802       .  S
C1732      C1733   1.406       .  A
C1733      C1734   1.401       .  A
C1733      H1740   1.083       .  S
C1734      S1736   1.800       .  S
S1735      H1738   1.405       .  S
S1736      H3825   1.404       .  S
H1737      S3824   1.403       .  S
C1741      C1742   1.401       .  A
C1741      C1746   1.416       .  A
C1742      C1743   1.395       .  A
C1742      H1751   1.085       .  S
C1743      C1744   1.415       .  A
C1743      S1747   1.803       .  S
C1744      C1745   1.403       .  A
C1745      C1746   1.406       .  A
C1745      H1752   1.084       .  S
C1746      S1748   1.799       .  S
S1747      H1750   1.404       .  S
S1748      H1749   1.405       .  S
C1753      C1754   1.401       .  A
C1753      C1758   1.411       .  A
C1754      C1755   1.393       .  A
C1754      H1763   1.085       .  S
C1755      C1756   1.418       .  A
C1755      S1759   1.804       .  S
C1756      C1757   1.408       .  A
C1757      C1758   1.402       .  A
C1757      H1764   1.084       .  S
C1758      S1760   1.803       .  S
S1759      H1762   1.403       .  S
S1760      H1761   1.407       .  S
C1765      C1766   1.409       .  A
C1765      C1770   1.416       .  A
C1766      C1767   1.406       .  A
C1766      H1775   1.083       .  S
C1767      C1768   1.412       .  A
C1767      S1771   1.806       .  S
C1768      C1769   1.397       .  A
C1769      C1770   1.389       .  A
C1769      H1776   1.085       .  S
C1770      S1772   1.804       .  S
S1771      H1774   1.401       .  S
S1772      H1773   1.407       .  S
C1777      C1778   1.407       .  A
C1777      C1782   1.420       .  A
C1778      C1779   1.388       .  A
C1778      H1787   1.084       .  S
C1779      C1780   1.415       .  A
C1779      S1783   1.804       .  S
C1780      C2314   1.490   1_545  S
C1780      C3869   1.409       .  A
C1781      C3868   1.409       .  A
C1781      C3870   1.413       .  A
C1781      H1788   1.083   1_556  S
C1782      C3869   1.414       .  A
C1782      S3872   1.800       .  S
S1783      H1786   1.403       .  S
S1784      C3870   1.802       .  S
S1784      H3873   1.402   1_556  S
H1785      S3872   1.403       .  S
C1789      C1790   1.404       .  A
C1789      C1794   1.411       .  A
C1790      C1791   1.398       .  A
C1790      H3887   1.084       .  S
C1791      C1792   1.412       .  A
C1791      S3883   1.805       .  S
C1792      C1793   1.408       .  A
C1793      C1794   1.405       .  A
C1793      H1800   1.084       .  S
C1794      S1796   1.805       .  S
S1795      C3879   1.805   1_554  S
S1795      H1798   1.408       .  S
S1796      H1797   1.406       .  S
H1799      C3878   1.085   1_554  S
C1801      C1802   1.407       .  A
C1801      C1806   1.410   1_554  A
C1802      C1803   1.407       .  A
C1802      H1811   1.080       .  S
C1803      C1804   1.412   1_554  A
C1803      S1807   1.804       .  S
C1804      C2193   1.484       .  S
C1804      C1805   1.406       .  A
C1805      C1806   1.405       .  A
C1805      H3900   1.083       .  S
C1806      S1808   1.802       .  S
S1807      H3898   1.407       .  S
S1808      H1809   1.407       .  S
H1810      S3895   1.407       .  S
H1812      C3893   1.084       .  S
C1813      C1814   1.405       .  A
C1813      C1818   1.408       .  A
C1814      C1815   1.406       .  A
C1814      H1823   1.083       .  S
C1815      C1816   1.416       .  A
C1815      S1819   1.801       .  S
C1816      C1817   1.401       .  A
C1817      C1818   1.386       .  A
C1817      H1824   1.082       .  S
C1818      S1820   1.806       .  S
S1819      H1822   1.404       .  S
S1820      H1821   1.406       .  S
C1825      C1826   1.402       .  A
C1825      C1830   1.411       .  A
C1826      C1827   1.402       .  A
C1826      H1835   1.084       .  S
C1827      C1828   1.414       .  A
C1827      S1831   1.803       .  S
C1828      C1829   1.401       .  A
C1829      C1830   1.396       .  A
C1829      H1836   1.083       .  S
C1830      S1832   1.803       .  S
S1831      H1834   1.407       .  S
S1832      H1833   1.405       .  S
C1837      C1838   1.405       .  A
C1837      C1842   1.410       .  A
C1838      C1839   1.408       .  A
C1838      H1847   1.083       .  S
C1839      C1840   1.413       .  A
C1839      S1843   1.807       .  S
C1840      C1841   1.407       .  A
C1841      C1842   1.401       .  A
C1841      H1848   1.084       .  S
C1842      S1844   1.805       .  S
S1843      H1846   1.407       .  S
S1844      H1845   1.407       .  S
C1849      C1850   1.401       .  A
C1849      C1854   1.411       .  A
C1850      C1851   1.395       .  A
C1850      H1859   1.085       .  S
C1851      C1852   1.413       .  A
C1851      S1855   1.806       .  S
C1852      C1853   1.406       .  A
C1853      C1854   1.404       .  A
C1853      H1860   1.083       .  S
C1854      S1856   1.806       .  S
S1855      H1858   1.407       .  S
S1856      H1857   1.403       .  S
C1861      C1862   1.409       .  A
C1861      C3954   1.423   1_554  A
C1862      C3951   1.399   1_554  A
C1862      H1871   1.084       .  S
C1863      C1864   1.407       .  A
C1863      C3950   1.397       .  A
C1863      S1867   1.803       .  S
C1864      C1865   1.397       .  A
C1865      C1866   1.397       .  A
C1865      H1872   1.085       .  S
C1866      C3949   1.422       .  A
C1866      S3956   1.801       .  S
S1867      H1870   1.405       .  S
S1868      C3954   1.802   1_554  S
S1868      H1869   1.408       .  S
C1873      C1874   1.404       .  A
C1873      C1878   1.416       .  A
C1874      C1875   1.403       .  A
C1874      H1883   1.084       .  S
C1875      C1876   1.413       .  A
C1875      S1879   1.804       .  S
C1876      C1877   1.397       .  A
C1877      C1878   1.389       .  A
C1877      H1884   1.084       .  S
C1878      S1880   1.805       .  S
S1879      H1882   1.402       .  S
S1880      H1881   1.408       .  S
C1885      C1886   1.399       .  A
C1885      C1890   1.413       .  A
C1886      C1887   1.403       .  A
C1886      H1895   1.084       .  S
C1887      C1888   1.423       .  A
C1887      S1891   1.803       .  S
C1888      C1889   1.404       .  A
C1889      C1890   1.403       .  A
C1889      H1896   1.084       .  S
C1890      S1892   1.802       .  S
S1891      H1894   1.405       .  S
S1892      H1893   1.404       .  S
C1897      C1898   1.400       .  A
C1897      C1902   1.410       .  A
C1898      C1899   1.402       .  A
C1898      H1907   1.084       .  S
C1899      C1900   1.419       .  A
C1899      S1903   1.801       .  S
C1900      C1901   1.403       .  A
C1901      C1902   1.387       .  A
C1901      H1908   1.083       .  S
C1902      S1904   1.805       .  S
S1903      H1906   1.408       .  S
S1904      H1905   1.400       .  S
C1909      C1910   1.396       .  A
C1909      C4002   1.407       .  A
C1910      C3999   1.389       .  A
C1910      H1919   1.084       .  S
C1911      C1912   1.416       .  A
C1911      C3998   1.391   1_554  A
C1911      S1915   1.812       .  S
C1912      C1913   1.406       .  A
C1913      C1914   1.397       .  A
C1913      H1920   1.084       .  S
C1914      C3997   1.407   1_554  A
C1914      S4004   1.804   1_554  S
S1915      H1918   1.407       .  S
S1916      C4002   1.804       .  S
S1916      H1917   1.407       .  S
C1921      C1922   1.402       .  A
C1921      C1926   1.411       .  A
C1922      C1923   1.399       .  A
C1922      H1931   1.084       .  S
C1923      C1924   1.411       .  A
C1923      S4015   1.804   1_554  S
C1924      C2219   1.465   1_554  S
C1924      C1925   1.401       .  A
C1925      C1926   1.399       .  A
C1925      H1932   1.085       .  S
C1926      S1928   1.804       .  S
S1927      C4011   1.804       .  S
S1927      H1930   1.405       .  S
S1928      H1929   1.405       .  S
C1933      C1934   1.406       .  A
C1933      C1938   1.416       .  A
C1934      C1935   1.407       .  A
C1934      H1943   1.084       .  S
C1935      C1936   1.418       .  A
C1935      S1939   1.798       .  S
C1936      C1937   1.407       .  A
C1937      C1938   1.397       .  A
C1937      H1944   1.084       .  S
C1938      S1940   1.803       .  S
S1939      H1942   1.408       .  S
S1940      H1941   1.407       .  S
C1945      C1946   1.408       .  A
C1945      C1950   1.413       .  A
C1946      C1947   1.405       .  A
C1946      H1955   1.084       .  S
C1947      C1948   1.412       .  A
C1947      S1951   1.799       .  S
C1948      C1949   1.404       .  A
C1949      C1950   1.392       .  A
C1949      H1956   1.084       .  S
C1950      S1952   1.804       .  S
S1951      H1954   1.406       .  S
S1952      H1953   1.399       .  S
C1957      C1958   1.407       .  A
C1957      C1962   1.424       .  A
C1958      C1959   1.401       .  A
C1958      H1967   1.082       .  S
C1959      C1960   1.410       .  A
C1959      S1963   1.808       .  S
C1960      C1961   1.401       .  A
C1961      C1962   1.409       .  A
C1961      H1968   1.084       .  S
C1962      S1964   1.801       .  S
S1963      H1966   1.407       .  S
S1964      H1965   1.408       .  S
C1969      C1970   1.397       .  A
C1969      C1974   1.407       .  A
C1970      C1971   1.390       .  A
C1970      H1979   1.084       .  S
C1971      C1972   1.413       .  A
C1971      S1975   1.805       .  S
C1972      C1973   1.407       .  A
C1973      C1974   1.409       .  A
C1973      H1980   1.083       .  S
C1974      S1976   1.804       .  S
S1975      H1978   1.406       .  S
S1976      H1977   1.407       .  S
C1981      C1982   1.395       .  A
C1981      C1986   1.410       .  A
C1982      C1983   1.395       .  A
C1982      H1991   1.084       .  S
C1983      C1984   1.421       .  A
C1983      S1987   1.797       .  S
C1984      C1985   1.409       .  A
C1985      C1986   1.400       .  A
C1985      H1992   1.083       .  S
C1986      S1988   1.809       .  S
S1987      H1990   1.407       .  S
S1988      H1989   1.402       .  S
C1993      C1994   1.402       .  A
C1993      C1998   1.411       .  A
C1994      C1995   1.404       .  A
C1994      H2003   1.082       .  S
C1995      C1996   1.413       .  A
C1995      S1999   1.802       .  S
C1996      C1997   1.402       .  A
C1997      C1998   1.399       .  A
C1997      H2004   1.085       .  S
C1998      S2000   1.803       .  S
S1999      H2002   1.404       .  S
S2000      H2001   1.406       .  S
C2005      C2006   1.408       .  A
C2005      C2010   1.413       .  A
C2006      C2007   1.410       .  A
C2006      H2015   1.083       .  S
C2007      C2008   1.414       .  A
C2007      S2011   1.800       .  S
C2008      C2009   1.402       .  A
C2009      C2010   1.397       .  A
C2009      H2016   1.084       .  S
C2010      S2012   1.800       .  S
S2011      H2014   1.405       .  S
S2012      H2013   1.400       .  S
C2017      C2018   1.409   1_655  A
C2017      C2022   1.415   1_655  A
C2018      C2019   1.402       .  A
C2018      H2027   1.084       .  S
C2019      C2020   1.411       .  A
C2019      S2023   1.803       .  S
C2020      C2021   1.404       .  A
C2021      C2022   1.403       .  A
C2021      H2028   1.084       .  S
C2022      S2024   1.804   1_455  S
S2023      H2026   1.403       .  S
S2024      H2025   1.408       .  S
C2029      C2030   1.406       .  A
C2029      C2034   1.416       .  A
C2030      C2031   1.410       .  A
C2030      H2039   1.084       .  S
C2031      C2032   1.417       .  A
C2031      S2035   1.800       .  S
C2032      C2033   1.402       .  A
C2033      C2034   1.392       .  A
C2033      H2040   1.084       .  S
C2034      S2036   1.803       .  S
S2035      H2038   1.408       .  S
S2036      H2037   1.404       .  S
C2041      C2042   1.405       .  A
C2041      C2046   1.422       .  A
C2042      C2043   1.393       .  A
C2042      H2051   1.084       .  S
C2043      C2044   1.413       .  A
C2043      S2047   1.800       .  S
C2044      C2045   1.402       .  A
C2045      C2046   1.407       .  A
C2045      H2052   1.084       .  S
C2046      S2048   1.801       .  S
S2047      H2050   1.405       .  S
S2048      H2049   1.408       .  S
C2053      C2054   1.402       .  A
C2053      C2058   1.410       .  A
C2054      C2055   1.400       .  A
C2054      H2063   1.083       .  S
C2055      C2056   1.411       .  A
C2055      S2059   1.808       .  S
C2056      C2057   1.405       .  A
C2057      C2058   1.398       .  A
C2057      H2064   1.084       .  S
C2058      S2060   1.802       .  S
S2059      H2062   1.407       .  S
S2060      H2061   1.406       .  S
C2065      C2066   1.405       .  A
C2065      C2070   1.413       .  A
C2066      C2067   1.402       .  A
C2066      H2075   1.082       .  S
C2067      C2068   1.409       .  A
C2067      S2071   1.805       .  S
C2068      C2069   1.398       .  A
C2069      C2070   1.394       .  A
C2069      H2076   1.085       .  S
C2070      S2072   1.802       .  S
S2071      H2074   1.404       .  S
S2072      H2073   1.402       .  S
C2077      C2078   1.404       .  A
C2077      C2082   1.412       .  A
C2078      C2079   1.404       .  A
C2078      H2087   1.084       .  S
C2079      C2080   1.417       .  A
C2079      S2083   1.802       .  S
C2080      C2081   1.403       .  A
C2081      C2082   1.390       .  A
C2081      H2088   1.084       .  S
C2082      S2084   1.805       .  S
S2083      H2086   1.405       .  S
S2084      H2085   1.405       .  S
O2089      C2104   1.265       .  A
O2089     Al2097   1.905       .  S
C2090      O2100   1.264       .  A
C2090      O2091   1.265       .  A
C2090      C4156   1.465       .  S
O2091     Al2093   1.895       .  S
O2092      C2094   1.258       .  A
O2092     Al2093   1.908       .  S
Al2093     O2101   1.901       .  S
Al2093     O2103   1.909       .  S
Al2093     O2102   1.781       .  S
C2094      O2107   1.263       .  A
C2094      C4108   1.476       .  S
O2095      C2105   1.260       .  A
O2095     Al2097   1.911       .  S
O2096      C2109   1.260       .  A
O2096     Al2106   1.906       .  S
Al2097     O2110   1.891       .  S
Al2097     O2107   1.920       .  S
Al2097     O2102   1.781       .  S
O2098      C2105   1.263       .  A
O2098     Al2106   1.901       .  S
O2099      C2108   1.260       .  A
O2099     Al2106   1.912       .  S
O2100     Al2106   1.920       .  S
O2101      C2108   1.259       .  A
O2102     Al2106   1.786       .  S
O2103      C2104   1.265       .  A
C2104      C4168   1.482       .  S
C2105      C4129   1.495       .  S
C2108      C4120   1.485       .  S
C2109      O2110   1.259       .  A
C2109      C4141   1.468       .  S
O2111      C2126   1.259       .  A
O2111     Al2119   1.884       .  S
C2112      O2122   1.260       .  A
C2112      O2113   1.265       .  A
C2112      C4057   1.467       .  S
O2113     Al2115   1.926       .  S
O2114      C2116   1.253       .  A
O2114     Al2115   1.879       .  S
Al2115     O2123   1.872       .  S
Al2115     O2125   1.910       .  S
Al2115     O2124   1.788       .  S
C2116      O2129   1.262       .  A
C2116      C4048   1.483       .  S
O2117      C2127   1.266       .  A
O2117     Al2119   1.924       .  S
O2118      C2131   1.266       .  A
O2118     Al2128   1.916       .  S
Al2119     O2132   1.919       .  S
Al2119     O2129   1.940       .  S
Al2119     O2124   1.792       .  S
O2120      C2127   1.264       .  A
O2120     Al2128   1.916       .  S
O2121      C2130   1.259       .  A
O2121     Al2128   1.935       .  S
O2122     Al2128   1.880       .  S
O2123      C2130   1.249       .  A
O2124     Al2128   1.791       .  S
O2125      C2126   1.262       .  A
C2126      C4069   1.460       .  S
C2127      C4093   1.488       .  S
C2130      C4117   1.483       .  S
C2131      O2132   1.265       .  A
C2131      C4081   1.473       .  S
O2133      C2148   1.252       .  A
O2133     Al2141   1.845       .  S
C2134      O2144   1.263       .  A
C2134      O2135   1.269       .  A
C2134      C3985   1.463       .  S
O2135     Al2137   1.925       .  S
O2136      C2138   1.255       .  A
O2136     Al2137   1.886       .  S
Al2137     O2145   1.904       .  S
Al2137     O2147   1.909       .  S
Al2137     O2146   1.788       .  S
C2138      O2151   1.260       .  A
C2138      C3973   1.477       .  S
O2139      C2149   1.259       .  A
O2139     Al2141   1.899       .  S
O2140      C2153   1.267       .  A
O2140     Al2150   1.908       .  S
Al2141     O2154   1.916       .  S
Al2141     O2151   1.922       .  S
Al2141     O2146   1.784       .  S
O2142      C2149   1.262       .  A
O2142     Al2150   1.917       .  S
O2143      C2152   1.257       .  A
O2143     Al2150   1.924       .  S
O2144     Al2150   1.879       .  S
O2145      C2152   1.254       .  A
O2146     Al2150   1.786       .  S
O2147      C2148   1.263       .  A
C2148      C4000   1.466       .  S
C2149      C4033   1.478       .  S
C2152      C4021   1.482       .  S
C2153      O2154   1.267       .  A
C2153      C4009   1.464       .  S
O2155      C2170   1.255       .  A
O2155     Al2163   1.859       .  S
C2156      O2166   1.261       .  A
C2156      O2157   1.270       .  A
C2156      C3949   1.488       .  S
O2157     Al2159   1.928       .  S
O2158      C2160   1.256       .  A
O2158     Al2159   1.886       .  S
Al2159     O2167   1.889       .  S
Al2159     O2169   1.925       .  S
Al2159     O2168   1.781       .  S
C2160      O2173   1.261       .  A
C2160      C3925   1.477       .  S
O2161      C2171   1.259       .  A
O2161     Al2163   1.902       .  S
O2162      C2175   1.267       .  A
O2162     Al2172   1.909       .  S
Al2163     O2176   1.924       .  S
Al2163     O2173   1.924       .  S
Al2163     O2168   1.784       .  S
O2164      C2171   1.262       .  A
O2164     Al2172   1.924       .  S
O2165      C2174   1.262       .  A
O2165     Al2172   1.940       .  S
O2166     Al2172   1.883       .  S
O2167      C2174   1.256       .  A
O2168     Al2172   1.786       .  S
O2169      C2170   1.265       .  A
C2170      C3961   1.467       .  S
C2171      C3937   1.470       .  S
C2174      C4024   1.493       .  S
C2175      O2176   1.268       .  A
C2175      C4084   1.472       .  S
O2177      C2192   1.265       .  A
O2177     Al2185   1.921       .  S
C2178      O2188   1.268       .  A
C2178      O2179   1.261       .  A
C2178      C3901   1.467       .  S
O2180      C2182   1.263       .  A
O2180     Al2181   1.897       .  S
Al2181     O2189   1.888       .  S
Al2181     O2191   1.903       .  S
Al2181     O2190   1.776       .  S
C2182      O2195   1.265       .  A
C2182      C3865   1.496       .  S
O2183      C2193   1.260       .  A
O2183     Al2185   1.917       .  S
O2184      C2197   1.267       .  A
O2184     Al2194   1.924       .  S
Al2185     O2198   1.876       .  S
Al2185     O2195   1.926       .  S
Al2185     O2190   1.786       .  S
O2186      C2193   1.259       .  A
O2186     Al2194   1.905       .  S
O2187      C2196   1.259       .  A
O2187     Al2194   1.921       .  S
O2189      C2196   1.253       .  A
O2190     Al2194   1.786       .  S
O2191      C2192   1.263       .  A
C2192      C3913   1.467       .  S
C2196      C3877   1.475       .  S
C2197      O2198   1.260       .  A
C2197      C4144   1.472       .  S
O2199      C2214   1.257       .  A
C2200      O2210   1.263       .  A
C2200      O2201   1.269       .  A
C2200      C3841   1.477       .  S
O2201     Al2203   1.935       .  S
O2202      C2204   1.258       .  A
O2202     Al2203   1.893       .  S
Al2203     O2211   1.891       .  S
Al2203     O2213   1.922       .  S
Al2203     O2212   1.789       .  S
C2204      O2217   1.263       .  A
C2204      C3817   1.480       .  S
O2205      C2215   1.261       .  A
O2205     Al2207   1.913       .  S
O2206      C2219   1.263       .  A
O2206     Al2216   1.902       .  S
Al2207     O2220   1.913       .  S
Al2207     O2217   1.932       .  S
Al2207     O2212   1.787       .  S
O2208      C2215   1.260       .  A
O2208     Al2216   1.909       .  S
O2209      C2218   1.257       .  A
O2209     Al2216   1.921       .  S
O2210     Al2216   1.879       .  S
O2211      C2218   1.255       .  A
O2212     Al2216   1.792       .  S
C2214      C3853   1.473       .  S
C2215      C3829   1.482       .  S
C2218      C3880   1.483       .  S
C2219      O2220   1.265       .  A
O2221      C2236   1.262       .  A
O2221     Al2229   1.892       .  S
C2222      O2232   1.262       .  A
C2222      O2223   1.267       .  A
C2222      C3781   1.461       .  S
O2223     Al2225   1.915       .  S
O2224      C2226   1.260       .  A
O2224     Al2225   1.910       .  S
Al2225     O2233   1.909       .  S
Al2225     O2235   1.912       .  S
Al2225     O2234   1.795       .  S
C2226      O2239   1.254       .  A
C2226      C3820   1.499       .  S
O2227      C2237   1.264       .  A
O2227     Al2229   1.917       .  S
O2228      C2241   1.258       .  A
O2228     Al2238   1.893       .  S
Al2229     O2242   1.892       .  S
Al2229     O2239   1.900       .  S
Al2229     O2234   1.788       .  S
O2230      C2237   1.261       .  A
O2230     Al2238   1.913       .  S
O2231      C2240   1.253       .  A
O2231     Al2238   1.890       .  S
O2232     Al2238   1.880       .  S
O2233      C2240   1.256       .  A
O2234     Al2238   1.798       .  S
O2235      C2236   1.264       .  A
C2236      C3805   1.467       .  S
C2237      C3757   1.474       .  S
C2240      C3769   1.478       .  S
C2241      O2242   1.259       .  A
C2241      C3793   1.465       .  S
O2243      C2258   1.261       .  A
O2243     Al2251   1.878       .  S
C2244      O2254   1.260       .  A
C2244      O2245   1.270       .  A
C2244      C3709   1.483       .  S
O2245     Al2247   1.940       .  S
O2246      C2248   1.258       .  A
O2246     Al2247   1.889       .  S
Al2247     O2255   1.907       .  S
Al2247     O2257   1.938       .  S
Al2247     O2256   1.777       .  S
C2248      O2261   1.260       .  A
C2248      C3748   1.486       .  S
O2249      C2259   1.265       .  A
O2249     Al2251   1.919       .  S
O2250      C2263   1.261       .  A
O2250     Al2260   1.893       .  S
Al2251     O2264   1.919       .  S
Al2251     O2261   1.926       .  S
Al2251     O2256   1.780       .  S
O2252      C2259   1.265       .  A
O2252     Al2260   1.925       .  S
O2253      C2262   1.259       .  A
O2253     Al2260   1.909       .  S
O2254     Al2260   1.864       .  S
O2255      C2262   1.257       .  A
O2256     Al2260   1.781       .  S
O2257      C2258   1.268       .  A
C2258      C3736   1.474       .  S
C2259      C3697   1.479       .  S
C2262      C3772   1.483       .  S
C2263      O2264   1.266       .  A
C2263      C3724   1.474       .  S
O2265      C2280   1.263       .  A
O2265     Al2273   1.895       .  S
C2266      O2276   1.262       .  A
C2266      O2267   1.265       .  A
C2266      C3916   1.472       .  S
O2267     Al2269   1.911       .  S
O2268      C2270   1.259       .  A
O2268     Al2269   1.913       .  S
Al2269     O2277   1.903       .  S
Al2269     O2279   1.924       .  S
Al2269     O2278   1.788       .  S
C2270      O2283   1.256       .  A
C2270      C3685   1.484       .  S
O2271      C2281   1.266       .  A
O2271     Al2273   1.915       .  S
O2272      C2285   1.259       .  A
O2272     Al2282   1.909       .  S
Al2273     O2286   1.887       .  S
Al2273     O2283   1.901       .  S
Al2273     O2278   1.783       .  S
O2274      C2281   1.266       .  A
O2274     Al2282   1.924       .  S
O2275      C2284   1.257       .  A
O2275     Al2282   1.896       .  S
O2276     Al2282   1.887       .  S
O2277      C2284   1.257       .  A
O2278     Al2282   1.788       .  S
O2279      C2280   1.268       .  A
C2280      C3664   1.475       .  S
C2281      C4132   1.477       .  S
C2284      C3676   1.473       .  S
C2285      O2286   1.258       .  A
C2285      C3904   1.474       .  S
O2287      C2302   1.257       .  A
O2287     Al2295   1.871       .  S
C2288      O2298   1.265       .  A
C2288      O2289   1.272       .  A
C2288      C3856   1.462       .  S
O2289     Al2291   1.934       .  S
O2290      C2292   1.256       .  A
O2290     Al2291   1.889       .  S
Al2291     O2299   1.912       .  S
Al2291     O2301   1.914       .  S
Al2291     O2300   1.790       .  S
C2292      O2305   1.259       .  A
C2292      C3652   1.497       .  S
O2293      C2303   1.258       .  A
O2293     Al2295   1.920       .  S
O2294      C2307   1.269       .  A
O2294     Al2304   1.907       .  S
Al2295     O2308   1.921       .  S
Al2295     O2305   1.911       .  S
Al2295     O2300   1.784       .  S
O2296      C2303   1.255       .  A
O2296     Al2304   1.891       .  S
O2297      C2306   1.251       .  A
O2297     Al2304   1.885       .  S
O2298     Al2304   1.877       .  S
O2299      C2306   1.254       .  A
O2300     Al2304   1.788       .  S
O2301      C2302   1.263       .  A
C2302      C3808   1.468       .  S
C2303      C4036   1.481       .  S
C2306      C3673   1.477       .  S
C2307      O2308   1.269       .  A
C2307      C3844   1.483       .  S
O2309      C2324   1.258       .  A
O2309     Al2317   1.883       .  S
C2310      O2320   1.264       .  A
C2310      O2311   1.270       .  A
C2310      C3625   1.486       .  S
Al2313     O2321   1.912       .  S
Al2313     O2323   1.933       .  S
Al2313     O2322   1.778       .  S
C2314      O2327   1.266       .  A
O2315      C2325   1.261       .  A
O2315     Al2317   1.910       .  S
O2316      C2329   1.260       .  A
O2316     Al2326   1.888       .  S
Al2317     O2330   1.935       .  S
Al2317     O2327   1.944       .  S
Al2317     O2322   1.783       .  S
O2318      C2325   1.261       .  A
O2318     Al2326   1.917       .  S
O2319      C2328   1.259       .  A
O2319     Al2326   1.909       .  S
O2321      C2328   1.261       .  A
O2322     Al2326   1.779       .  S
O2323      C2324   1.265       .  A
C2324      C3661   1.477       .  S
C2325      C3604   1.472       .  S
C2328      C3616   1.492       .  S
C2329      O2330   1.269       .  A
C2329      C3640   1.472       .  S
C2332      O2342   1.262       .  A
C2332      O2333   1.265       .  A
C2332      C3577   1.471       .  S
O2333     Al2335   1.925       .  S
O2334      C2336   1.261       .  A
O2334     Al2335   1.917       .  S
Al2335     O2343   1.920       .  S
Al2335     O2345   1.932       .  S
Al2335     O2344   1.790       .  S
C2336      O2349   1.259       .  A
C2336      C3565   1.483       .  S
O2337      C2347   1.263       .  A
O2337     Al2339   1.915       .  S
O2338     Al2348   1.911       .  S
Al2339     O2349   1.908       .  S
Al2339     O2344   1.786       .  S
O2340      C2347   1.263       .  A
O2340     Al2348   1.918       .  S
O2341      C2350   1.256       .  A
O2341     Al2348   1.893       .  S
O2342     Al2348   1.893       .  S
O2343      C2350   1.261       .  A
O2344     Al2348   1.786       .  S
O2345      C2346   1.267       .  A
C2347      C3556   1.476       .  S
C2350      C3613   1.481       .  S
C2351      O2352   1.264   1_556  A
C2351      C3592   1.482       .  S
O2353      C2368   1.259       .  A
O2353     Al2361   1.887       .  S
C2354      O2364   1.268       .  A
C2354      O2355   1.272       .  A
C2354      C3589   1.488       .  S
O2355     Al2357   1.937       .  S
O2356      C2358   1.255       .  A
O2356     Al2357   1.879       .  S
Al2357     O2365   1.885       .  S
Al2357     O2367   1.906       .  S
Al2357     O2366   1.788       .  S
C2358      O2371   1.260       .  A
C2358      C3745   1.486       .  S
O2359      C2369   1.262       .  A
O2359     Al2361   1.933       .  S
O2360      C2373   1.267       .  A
O2360     Al2370   1.908       .  S
Al2361     O2374   1.917       .  S
Al2361     O2371   1.922       .  S
Al2361     O2366   1.798       .  S
O2362      C2369   1.256       .  A
O2362     Al2370   1.897       .  S
O2363      C2372   1.253       .  A
O2363     Al2370   1.917       .  S
O2364     Al2370   1.897       .  S
O2365      C2372   1.249       .  A
O2366     Al2370   1.795       .  S
O2367      C2368   1.260       .  A
C2368      C3580   1.475       .  S
C2369      C3529   1.497       .  S
C2372      C3517   1.487       .  S
C2373      O2374   1.269       .  A
C2373      C3541   1.471       .  S
O2375      C2390   1.258       .  A
O2375     Al2383   1.885       .  S
C2376      O2386   1.258       .  A
C2376      O2377   1.267       .  A
C2376      C3637   1.489       .  S
O2377     Al2379   1.930       .  S
O2378      C2380   1.256       .  A
O2378     Al2379   1.883       .  S
Al2379     O2387   1.879       .  S
Al2379     O2389   1.945       .  S
Al2379     O2388   1.782       .  S
C2380      O2393   1.264       .  A
C2380      C3688   1.481       .  S
O2381      C2391   1.263       .  A
O2381     Al2383   1.914       .  S
O2382      C2395   1.260       .  A
O2382     Al2392   1.900       .  S
Al2383     O2396   1.916       .  S
Al2383     O2393   1.938       .  S
Al2383     O2388   1.784       .  S
O2384      C2391   1.267       .  A
O2384     Al2392   1.930       .  S
O2385      C2394   1.264       .  A
O2385     Al2392   1.938       .  S
O2386     Al2392   1.884       .  S
O2387      C2394   1.255       .  A
O2388     Al2392   1.784       .  S
O2389      C2390   1.267       .  A
C2390      C3628   1.476       .  S
C2391      C3505   1.477   1_455  S
C2394      C3520   1.473       .  S
C2395      O2396   1.263       .  A
C2395      C3493   1.465       .  S
O2397      C2412   1.258       .  A
O2397     Al2405   1.882       .  S
C2398      O2408   1.265       .  A
C2398      O2399   1.269       .  A
C2398      C3445   1.485       .  S
O2399     Al2401   1.921       .  S
O2400      C2402   1.254       .  A
O2400     Al2401   1.876       .  S
Al2401     O2409   1.889       .  S
Al2401     O2411   1.906       .  S
Al2401     O2410   1.789       .  S
C2402      O2415   1.260       .  A
C2402      C3424   1.482       .  S
O2403      C2413   1.258       .  A
O2403     Al2405   1.919       .  S
O2404      C2417   1.265       .  A
O2404     Al2414   1.896       .  S
Al2405     O2418   1.914       .  S
Al2405     O2415   1.915       .  S
Al2405     O2410   1.793       .  S
O2406      C2413   1.257       .  A
O2406     Al2414   1.897       .  S
O2407      C2416   1.253       .  A
O2407     Al2414   1.908       .  S
O2408     Al2414   1.883       .  S
O2409      C2416   1.250       .  A
O2410     Al2414   1.796       .  S
O2411      C2412   1.260       .  A
C2412      C3460   1.476       .  S
C2413      C3481   1.490       .  S
C2416      C3469   1.467       .  S
C2417      O2418   1.267       .  A
C2417      C3433   1.463       .  S
O2419      C2434   1.259       .  A
O2419     Al2427   1.884       .  S
C2420      O2430   1.262       .  A
C2420      O2421   1.261       .  A
C2420      C3397   1.477       .  S
O2421     Al2423   1.914       .  S
O2422      C2424   1.259       .  A
O2422     Al2423   1.883       .  S
Al2423     O2431   1.885       .  S
Al2423     O2433   1.917       .  S
Al2423     O2432   1.788       .  S
C2424      O2437   1.263       .  A
C2424      C3385   1.484       .  S
O2425      C2435   1.261       .  A
O2425     Al2427   1.904       .  S
O2426      C2439   1.261       .  A
O2426     Al2436   1.907       .  S
Al2427     O2440   1.910       .  S
Al2427     O2437   1.927       .  S
Al2427     O2432   1.785       .  S
O2428      C2435   1.264       .  A
O2428     Al2436   1.926       .  S
O2429      C2438   1.263       .  A
O2429     Al2436   1.927       .  S
O2430     Al2436   1.884       .  S
O2431      C2438   1.258       .  A
O2432     Al2436   1.787       .  S
O2433      C2434   1.259       .  A
C2434      C3412   1.470       .  S
C2435      C3553   1.476       .  S
C2438      C3472   1.477       .  S
C2439      O2440   1.263       .  A
C2439      C3544   1.470       .  S
O2441      C2456   1.260       .  A
C2442      O2452   1.263       .  A
C2442      O2443   1.267       .  A
C2442      C3364   1.460       .  S
O2443     Al2445   1.917       .  S
O2444      C2446   1.255       .  A
O2444     Al2445   1.886       .  S
Al2445     O2453   1.888       .  S
Al2445     O2455   1.902       .  S
Al2445     O2454   1.790       .  S
C2446      O2459   1.259       .  A
C2446      C3325   1.485       .  S
O2447      C2457   1.261       .  A
O2447     Al2449   1.914       .  S
O2448      C2461   1.263       .  A
O2448     Al2458   1.898       .  S
Al2449     O2462   1.912       .  S
Al2449     O2459   1.923       .  S
Al2449     O2454   1.793       .  S
O2450      C2457   1.260       .  A
O2450     Al2458   1.913       .  S
O2451      C2460   1.253       .  A
O2451     Al2458   1.913       .  S
O2452     Al2458   1.871       .  S
O2453      C2460   1.253       .  A
O2454     Al2458   1.797       .  S
C2456      C3373   1.481       .  S
C2457      C3349   1.488       .  S
C2460      C3337   1.492       .  S
C2461      O2462   1.265       .  A
O2463      C2478   1.259       .  A
O2463     Al2471   1.907       .  S
C2464      O2474   1.265       .  A
C2464      O2465   1.262       .  A
C2464      C3301   1.472       .  S
O2466      C2468   1.262       .  A
O2466     Al2467   1.912       .  S
Al2467     O2475   1.887       .  S
Al2467     O2477   1.907       .  S
Al2467     O2476   1.787       .  S
C2468      O2481   1.264       .  A
C2468      C3292   1.473       .  S
O2469      C2479   1.257       .  A
O2469     Al2471   1.912       .  S
O2470      C2483   1.261       .  A
O2470     Al2480   1.906       .  S
Al2471     O2484   1.898       .  S
Al2471     O2481   1.913       .  S
Al2471     O2476   1.791       .  S
O2472      C2479   1.262       .  A
O2472     Al2480   1.908       .  S
O2473      C2482   1.259       .  A
O2473     Al2480   1.918       .  S
O2475      C2482   1.256       .  A
O2476     Al2480   1.788       .  S
O2477      C2478   1.260       .  A
C2478      C3313   1.466       .  S
C2482      C3340   1.481       .  S
C2483      O2484   1.264       .  A
C2483      C3496   1.477       .  S
O2485      C2500   1.262       .  A
O2485     Al2493   1.888       .  S
C2486      O2496   1.260       .  A
C2486      O2487   1.266       .  A
C2486      C3316   1.474       .  S
O2487     Al2489   1.921       .  S
O2488      C2490   1.261       .  A
O2488     Al2489   1.914       .  S
Al2489     O2497   1.910       .  S
Al2489     O2499   1.922       .  S
Al2489     O2498   1.790       .  S
C2490      O2503   1.258       .  A
C2490      C3277   1.491       .  S
O2491      C2501   1.264       .  A
O2491     Al2493   1.911       .  S
O2492      C2505   1.256       .  A
O2492     Al2502   1.896       .  S
Al2493     O2506   1.909       .  S
Al2493     O2503   1.907       .  S
Al2493     O2498   1.790       .  S
O2494      C2501   1.265       .  A
O2494     Al2502   1.921       .  S
O2495      C2504   1.256       .  A
O2495     Al2502   1.893       .  S
O2496     Al2502   1.878       .  S
O2497      C2504   1.259       .  A
O2498     Al2502   1.785       .  S
O2499      C2500   1.266       .  A
C2500      C3253   1.476       .  S
C2501      C3508   1.477       .  S
C2504      C3265   1.480       .  S
C2505      O2506   1.260       .  A
C2505      C3304   1.469       .  S
O2507      C2522   1.261       .  A
O2507     Al2515   1.878       .  S
C2508      O2518   1.263       .  A
C2508      O2509   1.268       .  A
C2508      C3376   1.460       .  S
O2509     Al2511   1.916       .  S
O2510      C2512   1.259       .  A
O2510     Al2511   1.908       .  S
Al2511     O2519   1.912       .  S
Al2511     O2521   1.903       .  S
Al2511     O2520   1.798       .  S
C2512      O2525   1.254       .  A
C2512      C3976   1.492       .  S
O2513      C2523   1.264       .  A
O2513     Al2515   1.933       .  S
O2514      C2527   1.265       .  A
O2514     Al2524   1.906       .  S
Al2515     O2528   1.895       .  S
Al2515     O2525   1.894       .  S
Al2515     O2520   1.787       .  S
O2516      C2523   1.258       .  A
O2516     Al2524   1.901       .  S
O2517      C2526   1.251       .  A
O2517     Al2524   1.882       .  S
O2518     Al2524   1.869       .  S
O2519      C2526   1.254       .  A
O2520     Al2524   1.788       .  S
O2521      C2522   1.261       .  A
C2522      C3244   1.468       .  S
C2523      C3484   1.489       .  S
C2526      C3268   1.485       .  S
C2527      O2528   1.260       .  A
C2527      C3361   1.480       .  S
O2529      C2544   1.258       .  A
O2529     Al2537   1.876       .  S
C2530      O2540   1.262       .  A
C2530      O2531   1.268       .  A
C2530      C3997   1.452       .  S
O2531     Al2533   1.922       .  S
O2532      C2534   1.262       .  A
O2532     Al2533   1.903       .  S
Al2533     O2541   1.917       .  S
Al2533     O2543   1.910       .  S
Al2533     O2542   1.784       .  S
C2534      O2547   1.260       .  A
C2534      C3328   1.496       .  S
O2535      C2545   1.262       .  A
O2535     Al2537   1.929       .  S
O2536      C2549   1.263       .  A
O2536     Al2546   1.888       .  S
Al2537     O2550   1.920       .  S
Al2537     O2547   1.915       .  S
Al2537     O2542   1.775       .  S
O2538      C2545   1.258       .  A
O2538     Al2546   1.911       .  S
O2539      C2548   1.256       .  A
O2539     Al2546   1.899       .  S
O2540     Al2546   1.864       .  S
O2541      C2548   1.259       .  A
O2542     Al2546   1.781       .  S
O2543      C2544   1.262       .  A
C2544      C3241   1.462       .  S
C2545      C3832   1.480       .  S
C2548      C3229   1.486       .  S
C2549      O2550   1.271       .  A
C2549      C3988   1.477       .  S
O2551      C2566   1.261       .  A
O2551     Al2559   1.892       .  S
C2552      O2562   1.263       .  A
C2552      O2553   1.265       .  A
C2552      C3964   1.461       .  S
O2553     Al2555   1.919       .  S
O2554      C2556   1.262       .  A
O2554     Al2555   1.912       .  S
Al2555     O2563   1.923       .  S
Al2555     O2565   1.906       .  S
Al2555     O2564   1.787       .  S
C2556      O2569   1.262       .  A
C2556      C3217   1.487       .  S
O2557      C2567   1.263       .  A
O2557     Al2559   1.931       .  S
O2558      C2571   1.262       .  A
O2558     Al2568   1.898       .  S
Al2559     O2572   1.922       .  S
Al2559     O2569   1.913       .  S
Al2559     O2564   1.782       .  S
O2560      C2567   1.259       .  A
O2560     Al2568   1.902       .  S
O2561      C2570   1.254       .  A
O2561     Al2568   1.893       .  S
O2562     Al2568   1.886       .  S
O2563      C2570   1.262       .  A
O2564     Al2568   1.781       .  S
O2565      C2566   1.260       .  A
C2566      C3205   1.476       .  S
C2567      C4096   1.483       .  S
C2570      C3232   1.497       .  S
C2571      O2572   1.266       .  A
C2571      C3952   1.467       .  S
C2574      O2584   1.260       .  A
C2574      O2575   1.266       .  A
C2574      C3181   1.470       .  S
O2575     Al2577   1.931       .  S
O2576      C2578   1.262       .  A
O2576     Al2577   1.902       .  S
Al2577     O2585   1.916       .  S
Al2577     O2587   1.917       .  S
Al2577     O2586   1.789       .  S
C2578      O2591   1.263       .  A
C2578      C3928   1.484       .  S
O2579      C2589   1.262       .  A
O2579     Al2581   1.929       .  S
O2580     Al2590   1.885       .  S
Al2581     O2591   1.914       .  S
Al2581     O2586   1.781       .  S
O2582      C2589   1.261       .  A
O2582     Al2590   1.904       .  S
O2583      C2592   1.261       .  A
O2583     Al2590   1.911       .  S
O2584     Al2590   1.875       .  S
O2585      C2592   1.260       .  A
O2586     Al2590   1.781       .  S
O2587      C2588   1.262       .  A
C2589      C3160   1.492       .  S
C2592      C3169   1.484       .  S
C2593      O2594   1.266       .  A
C2593      C3196   1.460       .  S
O2595      C2610   1.259       .  A
O2595     Al2603   1.877       .  S
C2596      O2606   1.262       .  A
C2596      O2597   1.266       .  A
C2596      C3136   1.469       .  S
Al2599     O2607   1.928       .  S
Al2599     O2609   1.917       .  S
Al2599     O2608   1.792       .  S
C2600      O2613   1.257       .  A
O2601      C2611   1.264       .  A
O2601     Al2603   1.923       .  S
O2602      C2615   1.263       .  A
O2602     Al2612   1.905       .  S
Al2603     O2616   1.903       .  S
Al2603     O2613   1.902       .  S
Al2603     O2608   1.784       .  S
O2604      C2611   1.262       .  A
O2604     Al2612   1.913       .  S
O2605      C2614   1.255       .  A
O2605     Al2612   1.891       .  S
O2607      C2614   1.260       .  A
O2608     Al2612   1.780       .  S
O2609      C2610   1.265       .  A
C2610      C3256   1.464       .  S
C2611      C3121   1.484       .  S
C2614      C3172   1.493       .  S
C2615      O2616   1.262       .  A
C2615      C3145   1.473       .  S
O2617      C2632   1.262       .  A
O2617     Al2625   1.894       .  S
C2618      O2628   1.257       .  A
C2618      O2619   1.266       .  A
C2618      C3088   1.466       .  S
O2619     Al2621   1.923       .  S
O2620      C2622   1.259       .  A
O2620     Al2621   1.907       .  S
Al2621     O2629   1.918       .  S
Al2621     O2631   1.913       .  S
Al2621     O2630   1.796       .  S
C2622      O2635   1.257       .  A
C2622      C4105   1.488       .  S
O2623      C2633   1.264       .  A
O2623     Al2625   1.931       .  S
O2624      C2637   1.257       .  A
O2624     Al2634   1.877       .  S
Al2625     O2638   1.906       .  S
Al2625     O2635   1.897       .  S
Al2625     O2630   1.787       .  S
O2626      C2633   1.260       .  A
O2626     Al2634   1.896       .  S
O2627      C2636   1.255       .  A
O2627     Al2634   1.896       .  S
O2628     Al2634   1.849       .  S
O2629      C2636   1.258       .  A
O2630     Al2634   1.787       .  S
O2631      C2632   1.263       .  A
C2632      C3112   1.466       .  S
C2633      C3061   1.487       .  S
C2636      C3073   1.481       .  S
C2637      O2638   1.262       .  A
C2637      C3097   1.457       .  S
O2639      C2654   1.261       .  A
O2639     Al2647   1.883       .  S
C2640      O2650   1.264       .  A
C2640      O2641   1.268       .  A
C2640      C3040   1.475       .  S
O2641     Al2643   1.925       .  S
O2642      C2644   1.257       .  A
O2642     Al2643   1.905       .  S
Al2643     O2651   1.912       .  S
Al2643     O2653   1.921       .  S
Al2643     O2652   1.788       .  S
C2644      O2657   1.255       .  A
C2644      C3421   1.472       .  S
O2645      C2655   1.263       .  A
O2645     Al2647   1.907       .  S
O2646      C2659   1.263       .  A
O2646     Al2656   1.914       .  S
Al2647     O2660   1.898       .  S
Al2647     O2657   1.900       .  S
Al2647     O2652   1.787       .  S
O2648      C2655   1.263       .  A
O2648     Al2656   1.919       .  S
O2649      C2658   1.257       .  A
O2649     Al2656   1.893       .  S
O2650     Al2656   1.890       .  S
O2651      C2658   1.257       .  A
O2652     Al2656   1.787       .  S
O2653      C2654   1.266       .  A
C2654      C3025   1.477       .  S
C2655      C3016   1.470       .  S
C2658      C3076   1.483       .  S
C2659      O2660   1.261       .  A
C2659      C3049   1.487       .  S
O2661      C2676   1.268       .  A
O2661     Al2669   1.915       .  S
C2662      O2672   1.271       .  A
C2662      O2663   1.264       .  A
C2662      C4165   1.472       .  S
Al2665     O2673   1.906       .  S
Al2665     O2675   1.912       .  S
Al2665     O2674   1.793       .  S
C2666      O2679   1.264       .  A
O2667      C2677   1.260       .  A
O2667     Al2669   1.917       .  S
O2668      C2681   1.263       .  A
O2668     Al2678   1.916       .  S
Al2669     O2682   1.872       .  S
Al2669     O2679   1.930       .  S
Al2669     O2674   1.787       .  S
O2670      C2677   1.258       .  A
O2670     Al2678   1.901       .  S
O2671      C2680   1.253       .  A
O2671     Al2678   1.901       .  S
O2673      C2680   1.253       .  A
O2674     Al2678   1.790       .  S
O2675      C2676   1.269       .  A
C2676      C3109   1.470       .  S
C2677      C3889   1.487       .  S
C2680      C2992   1.476       .  S
C2681      O2682   1.258       .  A
C2681      C4153   1.477       .  S
C2684      O2694   1.272       .  A
C2684      O2685   1.263       .  A
C2684      C4072   1.487       .  S
O2685     Al2687   1.881       .  S
O2686      C2688   1.262       .  A
O2686     Al2687   1.928       .  S
Al2687     O2695   1.935       .  S
Al2687     O2697   1.893       .  S
Al2687     O2696   1.792       .  S
C2688      O2701   1.257       .  A
C2688      C3388   1.478       .  S
O2689      C2699   1.263       .  A
O2689     Al2691   1.925       .  S
O2690     Al2700   1.923       .  S
Al2691     O2701   1.909       .  S
Al2691     O2696   1.780       .  S
O2692      C2699   1.256       .  A
O2692     Al2700   1.876       .  S
O2693      C2702   1.252       .  A
O2693     Al2700   1.883       .  S
O2694     Al2700   1.931       .  S
O2695      C2702   1.260       .  A
O2696     Al2700   1.780       .  S
O2697      C2698   1.264       .  A
C2699      C3940   1.479       .  S
C2702      C2989   1.470       .  S
C2703      O2704   1.254       .  A
C2703      C4060   1.472       .  S
O2705      C2720   1.265       .  A
O2705     Al2713   1.911       .  S
C2706      O2716   1.266       .  A
C2706      O2707   1.260       .  A
C2706      C3457   1.464       .  S
O2707     Al2709   1.882       .  S
O2708      C2710   1.260       .  A
O2708     Al2709   1.908       .  S
Al2709     O2717   1.935       .  S
Al2709     O2719   1.904       .  S
Al2709     O2718   1.793       .  S
C2710      O2723   1.261       .  A
C2710      C2965   1.472       .  S
O2711      C2721   1.263       .  A
O2711     Al2713   1.931       .  S
O2712      C2725   1.263       .  A
O2712     Al2722   1.924       .  S
Al2713     O2726   1.881       .  S
Al2713     O2723   1.910       .  S
Al2713     O2718   1.786       .  S
O2714      C2721   1.256       .  A
O2714     Al2722   1.889       .  S
O2715      C2724   1.256       .  A
O2715     Al2722   1.883       .  S
O2716     Al2722   1.924       .  S
O2717      C2724   1.261       .  A
O2718     Al2722   1.784       .  S
O2719      C2720   1.264       .  A
C2720      C3028   1.464       .  S
C2721      C3352   1.479       .  S
C2724      C2953   1.489       .  S
C2725      O2726   1.256       .  A
C2725      C3448   1.466       .  S
O2727      C2742   1.260       .  A
O2727     Al2735   1.885       .  S
C2728      O2738   1.261       .  A
C2728      O2729   1.270       .  A
C2728      C3409   1.476       .  S
O2729     Al2731   1.934       .  S
O2730      C2732   1.261       .  A
O2730     Al2731   1.902       .  S
Al2731     O2739   1.924       .  S
Al2731     O2741   1.913       .  S
Al2731     O2740   1.788       .  S
C2732      O2745   1.260       .  A
C2732      C4045   1.501       .  S
O2733      C2743   1.267       .  A
O2733     Al2735   1.944       .  S
O2734      C2747   1.264       .  A
O2734     Al2744   1.904       .  S
Al2735     O2748   1.914       .  S
Al2735     O2745   1.918       .  S
Al2735     O2740   1.784       .  S
O2736      C2743   1.260       .  A
O2736     Al2744   1.894       .  S
O2737      C2746   1.254       .  A
O2737     Al2744   1.889       .  S
O2738     Al2744   1.870       .  S
O2739      C2746   1.258       .  A
O2740     Al2744   1.779       .  S
O2741      C2742   1.263       .  A
C2742      C2977   1.467       .  S
C2743      C3532   1.497       .  S
C2746      C2956   1.480       .  S
C2747      O2748   1.266       .  A
C2747      C3400   1.477       .  S
O2749      C2764   1.254       .  A
O2749     Al2757   1.860       .  S
C2750      O2760   1.265       .  A
C2750      O2751   1.271       .  A
C2750      C3148   1.471       .  S
O2751     Al2753   1.934       .  S
O2752      C2754   1.254       .  A
O2752     Al2753   1.882       .  S
Al2753     O2761   1.896       .  S
Al2753     O2763   1.927       .  S
Al2753     O2762   1.784       .  S
C2754      O2767   1.261       .  A
C2754      C3280   1.477       .  S
O2755      C2765   1.263       .  A
O2755     Al2757   1.919       .  S
O2756      C2769   1.267       .  A
O2756     Al2766   1.910       .  S
Al2757     O2770   1.917       .  S
Al2757     O2767   1.926       .  S
Al2757     O2762   1.781       .  S
O2758      C2765   1.262       .  A
O2758     Al2766   1.916       .  S
O2759      C2768   1.256       .  A
O2759     Al2766   1.913       .  S
O2760     Al2766   1.874       .  S
O2761      C2768   1.255       .  A
O2762     Al2766   1.783       .  S
O2763      C2764   1.266       .  A
C2764      C3133   1.484       .  S
C2765      C3064   1.488   1_565  S
C2768      C2941   1.478       .  S
C2769      O2770   1.267       .  A
C2769      C2932   1.466       .  S
O2771      C2786   1.256       .  A
O2771     Al2779   1.870       .  S
C2772      O2782   1.265       .  A
C2772      O2773   1.268       .  A
C2772      C3193   1.482       .  S
O2773     Al2775   1.922       .  S
O2774      C2776   1.258       .  A
O2774     Al2775   1.890       .  S
Al2775     O2783   1.895       .  S
Al2775     O2785   1.923       .  S
Al2775     O2784   1.784       .  S
C2776      O2789   1.264       .  A
C2776      C3220   1.479       .  S
O2777      C2787   1.262       .  A
O2777     Al2779   1.912       .  S
O2778      C2791   1.264       .  A
O2778     Al2788   1.905       .  S
Al2779     O2792   1.908       .  S
Al2779     O2789   1.929       .  S
Al2779     O2784   1.783       .  S
O2780      C2787   1.262       .  A
O2780     Al2788   1.915       .  S
O2781      C2790   1.259       .  A
O2781     Al2788   1.922       .  S
O2782     Al2788   1.891       .  S
O2783      C2790   1.255       .  A
O2784     Al2788   1.786       .  S
O2785      C2786   1.261       .  A
C2786      C3184   1.488       .  S
C2787      C3700   1.481       .  S
C2790      C2944   1.468       .  S
C2791      O2792   1.265       .  A
C2791      C2917   1.464       .  S
O2793      C2808   1.264       .  A
O2793     Al2801   1.900       .  S
C2794      O2804   1.268       .  A
C2794      O2795   1.261       .  A
C2794      C3796   1.470       .  S
O2795     Al2797   1.859       .  S
O2796      C2798   1.265       .  A
O2796     Al2797   1.926       .  S
Al2797     O2805   1.905       .  S
Al2797     O2807   1.894       .  S
Al2797     O2806   1.783       .  S
C2798      O2811   1.263       .  A
C2798      C3649   1.489       .  S
O2799      C2809   1.259       .  A
O2799     Al2801   1.906       .  S
O2800      C2813   1.266       .  A
O2800     Al2810   1.925       .  S
Al2801     O2814   1.884       .  S
Al2801     O2811   1.920       .  S
Al2801     O2806   1.778       .  S
O2802      C2809   1.260       .  A
O2802     Al2810   1.903       .  S
O2803      C2812   1.258       .  A
O2803     Al2810   1.910       .  S
O2804     Al2810   1.930       .  S
O2805      C2812   1.258       .  A
O2806     Al2810   1.784       .  S
O2807      C2808   1.261       .  A
C2808      C3784   1.464       .  S
C2809      C3013   1.481       .  S
C2812      C2908   1.482       .  S
C2813      O2814   1.260       .  A
C2813      C2893   1.474       .  S
O2815      C2830   1.258       .  A
O2815     Al2823   1.877       .  S
C2816      O2826   1.262       .  A
C2816      O2817   1.269       .  A
C2816      C3721   1.467       .  S
O2817     Al2819   1.930       .  S
O2818      C2820   1.253       .  A
O2818     Al2819   1.880       .  S
Al2819     O2827   1.885       .  S
Al2819     O2829   1.916       .  S
Al2819     O2828   1.788       .  S
C2820      O2833   1.259       .  A
C2820      C3568   1.480       .  S
O2821      C2831   1.265       .  A
O2821     Al2823   1.929       .  S
O2822      C2835   1.264       .  A
O2822     Al2832   1.901       .  S
Al2823     O2836   1.921       .  S
Al2823     O2833   1.924       .  S
Al2823     O2828   1.791       .  S
O2824      C2831   1.260       .  A
O2824     Al2832   1.910       .  S
O2825      C2834   1.254       .  A
O2825     Al2832   1.910       .  S
O2826     Al2832   1.865       .  S
O2827      C2834   1.251       .  A
O2828     Al2832   1.788       .  S
O2829      C2830   1.265       .  A
C2830      C3712   1.491       .  S
C2831      C3157   1.493       .  S
C2834      C2905   1.485       .  S
C2835      O2836   1.267       .  A
C2835      C2920   1.464       .  S
O2837      C2852   1.255       .  A
O2837     Al2845   1.873       .  S
C2838      O2848   1.265       .  A
C2838      O2839   1.266       .  A
C2838      C3100   1.470       .  S
O2840      C2842   1.255       .  A
O2840     Al2841   1.873       .  S
Al2841     O2849   1.883       .  S
Al2841     O2851   1.894       .  S
Al2841     O2850   1.780       .  S
C2842      O2855   1.265       .  A
C2842      C3004   1.482       .  S
O2843      C2853   1.259       .  A
O2843     Al2845   1.907       .  S
O2844      C2857   1.264       .  A
O2844     Al2854   1.896       .  S
Al2845     O2858   1.935       .  S
Al2845     O2855   1.942       .  S
Al2845     O2850   1.785       .  S
O2846      C2853   1.260       .  A
O2846     Al2854   1.906       .  S
O2847      C2856   1.257       .  A
O2847     Al2854   1.921       .  S
O2849      C2856   1.254       .  A
O2850     Al2854   1.786       .  S
O2851      C2852   1.259       .  A
C2852      C3085   1.481       .  S
C2856      C2881   1.484       .  S
C2857      O2858   1.271       .  A
C2857      C2929   1.467       .  S
O2859      C2874   1.266       .  A
C2860      O2870   1.269       .  A
C2860      O2861   1.262       .  A
C2860      C3052   1.467       .  S
O2861     Al2863   1.882       .  S
O2862      C2864   1.264       .  A
O2862     Al2863   1.931       .  S
Al2863     O2871   1.903       .  S
Al2863     O2873   1.902       .  S
Al2863     O2872   1.787       .  S
C2864      O2877   1.258       .  A
C2864      C2968   1.473       .  S
O2865      C2875   1.260       .  A
O2865     Al2867   1.913       .  S
O2866      C2879   1.266       .  A
O2866     Al2876   1.933       .  S
Al2867     O2880   1.883   1_556  S
Al2867     O2877   1.901       .  S
Al2867     O2872   1.777       .  S
O2868      C2875   1.262       .  A
O2868     Al2876   1.904       .  S
O2869      C2878   1.259       .  A
O2869     Al2876   1.910       .  S
O2870     Al2876   1.938       .  S
O2871      C2878   1.259       .  A
O2872     Al2876   1.784       .  S
C2874      C3037   1.472       .  S
C2875      C3760   1.492       .  S
C2878      C2884   1.477       .  S
C2879      O2880   1.259   1_556  A
C2881      C2882   1.403       .  A
C2881      C2886   1.420       .  A
C2882      C2883   1.394       .  A
C2882      H2891   1.084       .  S
C2883      C2884   1.412       .  A
C2883      S2887   1.800       .  S
C2884      C2885   1.402       .  A
C2885      C2886   1.404       .  A
S2887      H2890   1.407       .  S
S2888      H2889   1.408       .  S
C2893      C2894   1.402       .  A
C2893      C2898   1.411       .  A
C2894      C2895   1.397       .  A
C2894      H2903   1.085       .  S
C2895      C2896   1.413       .  A
C2895      S2899   1.799       .  S
C2896      C2897   1.406       .  A
C2897      C2898   1.404       .  A
C2897      H2904   1.083       .  S
C2898      S2900   1.807       .  S
S2899      H2902   1.404       .  S
S2900      H2901   1.406       .  S
C2905      C2906   1.408       .  A
C2905      C2910   1.415       .  A
C2906      C2907   1.403   1_565  A
C2906      H2915   1.084       .  S
C2907      C2908   1.413       .  A
C2907      S2911   1.799       .  S
C2908      C2909   1.405       .  A
C2909      C2910   1.399   1_545  A
C2909      H2916   1.084       .  S
C2910      S2912   1.806       .  S
S2911      H2914   1.406       .  S
S2912      H2913   1.408       .  S
C2917      C2918   1.400       .  A
C2917      C2922   1.408       .  A
C2918      C2919   1.393       .  A
C2918      H2927   1.085       .  S
C2919      C2920   1.409       .  A
C2919      S2923   1.804       .  S
C2920      C2921   1.404       .  A
C2921      C2922   1.406       .  A
C2921      H2928   1.083       .  S
C2922      S2924   1.805       .  S
S2923      H2926   1.406       .  S
S2924      H2925   1.407       .  S
C2929      C2930   1.402       .  A
C2929      C2934   1.409   1_545  A
C2930      C2931   1.401       .  A
C2930      H2939   1.084       .  S
C2931      C2932   1.411   1_545  A
C2931      S2935   1.803       .  S
C2932      C2933   1.402       .  A
C2933      C2934   1.396       .  A
C2933      H2940   1.085       .  S
C2934      S2936   1.804       .  S
S2935      H2938   1.404       .  S
S2936      H2937   1.406       .  S
C2941      C2942   1.408       .  A
C2941      C2946   1.412       .  A
C2942      C2943   1.402       .  A
C2942      H2951   1.084       .  S
C2943      C2944   1.409       .  A
C2943      S2947   1.805       .  S
C2944      C2945   1.402       .  A
C2945      C2946   1.399       .  A
C2945      H2952   1.085       .  S
C2946      S2948   1.804       .  S
S2947      H2950   1.405       .  S
S2948      H2949   1.407       .  S
C2953      C2954   1.410       .  A
C2953      C2958   1.414       .  A
C2954      C2955   1.410   1_655  A
C2954      H2963   1.084       .  S
C2955      C2956   1.414       .  A
C2955      S2959   1.800       .  S
C2956      C2957   1.399       .  A
C2957      C2958   1.392   1_455  A
C2957      H2964   1.085       .  S
C2958      S2960   1.797       .  S
S2959      H2962   1.404       .  S
S2960      H2961   1.404       .  S
C2965      C2966   1.400       .  A
C2965      C2970   1.414       .  A
C2966      C2967   1.399       .  A
C2966      H2975   1.083       .  S
C2967      C2968   1.411       .  A
C2967      S2971   1.798       .  S
C2968      C2969   1.401       .  A
C2969      C2970   1.402       .  A
C2969      H2976   1.084       .  S
C2970      S2972   1.800       .  S
S2971      H2974   1.405       .  S
S2972      H2973   1.405       .  S
C2977      C2978   1.403       .  A
C2977      C2982   1.413       .  A
C2978      C2979   1.401       .  A
C2978      H2987   1.084       .  S
C2979      C2980   1.407       .  A
C2979      S2983   1.807       .  S
C2980      C2981   1.399       .  A
C2981      C2982   1.397       .  A
C2981      H2988   1.085   1_556  S
C2982      S2984   1.807       .  S
S2983      H2986   1.407       .  S
S2984      H2985   1.402       .  S
C2989      C2990   1.402       .  A
C2989      C2994   1.411       .  A
C2990      C2991   1.401       .  A
C2990      H2999   1.084       .  S
C2991      C2992   1.412       .  A
C2991      S2995   1.804       .  S
C2992      C2993   1.405       .  A
C2993      C2994   1.401       .  A
S2995      H2998   1.407       .  S
S2996      H2997   1.405       .  S
C3001      C3006   1.421       .  A
C3002      C3003   1.411       .  A
C3002      H3011   1.083       .  S
C3003      S3007   1.801       .  S
C3004      C3005   1.399       .  A
C3005      C3006   1.394       .  A
C3005      H3012   1.085       .  S
C3006      S3008   1.805       .  S
S3007      H3010   1.406       .  S
S3008      H3009   1.399   1_655  S
C3013      C3014   1.408       .  A
C3013      C3018   1.413       .  A
C3014      C3015   1.400       .  A
C3014      H3023   1.084       .  S
C3015      C3016   1.408       .  A
C3015      S3019   1.806       .  S
C3016      C3017   1.405       .  A
C3017      C3018   1.403       .  A
C3017      H3024   1.084       .  S
C3018      S3020   1.804       .  S
S3019      H3022   1.405       .  S
S3020      H3021   1.407       .  S
C3025      C3026   1.405       .  A
C3025      C3030   1.415       .  A
C3026      C3027   1.398       .  A
C3026      H3035   1.084       .  S
C3027      C3028   1.408       .  A
C3027      S3031   1.799       .  S
C3028      C3029   1.400       .  A
C3029      C3030   1.397       .  A
C3029      H3036   1.085       .  S
C3030      S3032   1.804       .  S
S3031      H3034   1.404       .  S
S3032      H3033   1.406       .  S
C3037      C3038   1.398       .  A
C3037      C3042   1.411       .  A
C3038      C3039   1.394       .  A
C3038      H3047   1.080       .  S
C3039      C3040   1.411       .  A
C3039      S3043   1.794       .  S
C3040      C3041   1.405       .  A
C3041      C3042   1.402       .  A
C3041      H3048   1.084       .  S
C3042      S3044   1.800       .  S
S3043      H3046   1.405       .  S
S3044      H3045   1.405       .  S
C3049      C3050   1.409       .  A
C3049      C3054   1.418       .  A
C3050      C3051   1.393       .  A
C3050      H3059   1.083       .  S
C3051      C3052   1.406       .  A
C3051      S3055   1.807       .  S
C3052      C3053   1.403       .  A
C3053      C3054   1.404       .  A
C3053      H3060   1.079       .  S
C3054      S3056   1.801       .  S
S3055      H3058   1.404       .  S
S3056      H3057   1.404       .  S
C3061      C3062   1.403       .  A
C3061      C3066   1.416       .  A
C3062      C3063   1.392       .  A
C3062      H3071   1.082       .  S
C3063      C3064   1.414       .  A
C3063      S3067   1.803   1_545  S
C3064      C3065   1.410       .  A
C3065      C3066   1.412       .  A
C3065      H3072   1.083       .  S
C3066      S3068   1.802       .  S
S3067      H3070   1.397       .  S
S3068      H3069   1.404       .  S
C3073      C3074   1.406       .  A
C3073      C3078   1.411       .  A
C3074      C3075   1.411       .  A
C3074      H3083   1.083       .  S
C3075      C3076   1.418       .  A
C3075      S3079   1.804       .  S
C3076      C3077   1.402       .  A
C3077      C3078   1.393       .  A
C3077      H3084   1.084       .  S
C3078      S3080   1.800       .  S
S3079      H3082   1.403       .  S
S3080      H3081   1.406       .  S
C3085      C3086   1.413       .  A
C3085      C3090   1.417       .  A
C3086      C3087   1.403       .  A
C3086      H3095   1.083       .  S
C3087      C3088   1.406       .  A
C3087      S3091   1.807       .  S
C3088      C3089   1.400       .  A
C3089      C3090   1.386       .  A
C3089      H3096   1.085       .  S
C3090      S3092   1.803       .  S
S3091      H3094   1.407       .  S
S3092      H3093   1.403       .  S
C3097      C3098   1.396       .  A
C3097      C3102   1.409       .  A
C3098      C3099   1.393       .  A
C3098      H3107   1.083       .  S
C3099      C3100   1.415       .  A
C3099      S3103   1.806       .  S
C3100      C3101   1.404       .  A
C3101      C3102   1.398       .  A
C3101      H3108   1.084       .  S
C3102      S3104   1.803       .  S
S3103      H3106   1.406       .  S
S3104      H3105   1.401       .  S
C3109      C3110   1.404   1_455  A
C3109      C3114   1.412       .  A
C3110      C3111   1.403       .  A
C3110      H3119   1.084       .  S
C3111      C3112   1.411       .  A
C3111      S3115   1.802       .  S
C3112      C3113   1.398   1_655  A
C3113      C3114   1.394       .  A
C3113      H3120   1.085       .  S
C3114      S3116   1.800       .  S
S3115      H3118   1.406       .  S
S3116      H3117   1.407       .  S
C3121      C3122   1.404       .  A
C3122      C3123   1.396       .  A
C3122      H3131   1.084       .  S
C3123      C3124   1.411   1_565  A
C3123      S3127   1.804   1_565  S
C3125      C3126   1.408   1_556  A
C3125      H3132   1.084       .  S
C3126      S3128   1.804   1_554  S
S3127      H3130   1.407       .  S
S3128      H3129   1.402       .  S
C3133      C3134   1.409       .  A
C3133      C3138   1.421       .  A
C3134      C3135   1.403       .  A
C3134      H3143   1.084       .  S
C3135      C3136   1.410       .  A
C3135      S3139   1.798       .  S
C3136      C3137   1.397       .  A
C3137      C3138   1.388       .  A
C3137      H3144   1.083       .  S
C3138      S3140   1.805       .  S
S3139      H3142   1.406       .  S
S3140      H3141   1.408       .  S
C3145      C3146   1.406       .  A
C3145      C3150   1.412       .  A
C3146      C3147   1.403       .  A
C3146      H3155   1.084       .  S
C3147      C3148   1.412       .  A
C3147      S3151   1.802       .  S
C3148      C3149   1.400       .  A
C3149      C3150   1.392       .  A
C3149      H3156   1.080       .  S
C3150      S3152   1.810       .  S
S3151      H3154   1.406       .  S
S3152      H3153   1.407       .  S
C3157      C3158   1.410       .  A
C3157      C3162   1.417       .  A
C3158      C3159   1.413       .  A
C3158      H3167   1.084       .  S
C3159      C3160   1.416       .  A
C3159      S3163   1.798       .  S
C3160      C3161   1.402       .  A
C3161      C3162   1.393       .  A
C3161      H3168   1.085       .  S
C3162      S3164   1.803       .  S
S3163      H3166   1.406       .  S
S3164      H3165   1.397       .  S
C3169      C3170   1.400       .  A
C3169      C3174   1.415       .  A
C3170      C3171   1.396       .  A
C3170      H3179   1.085       .  S
C3171      C3172   1.418       .  A
C3172      C3173   1.409       .  A
C3173      C3174   1.412       .  A
C3173      H3180   1.084       .  S
C3174      S3176   1.802       .  S
S3175      H3178   1.404       .  S
S3176      H3177   1.406       .  S
C3181      C3182   1.401       .  A
C3181      C3186   1.409       .  A
C3182      C3183   1.403       .  A
C3182      H3191   1.084       .  S
C3183      C3184   1.420       .  A
C3183      S3187   1.799       .  S
C3184      C3185   1.406       .  A
C3185      C3186   1.391       .  A
C3185      H3192   1.084       .  S
C3186      S3188   1.802       .  S
S3187      H3190   1.407       .  S
S3188      H3189   1.407       .  S
C3193      C3194   1.407       .  A
C3193      C3198   1.416       .  A
C3194      C3195   1.395       .  A
C3194      H3203   1.084       .  S
C3195      C3196   1.406       .  A
C3195      S3199   1.802       .  S
C3196      C3197   1.399       .  A
C3197      C3198   1.398       .  A
C3197      H3204   1.084       .  S
C3198      S3200   1.801       .  S
S3199      H3202   1.404       .  S
S3200      H3201   1.408       .  S
C3205      C3206   1.402       .  A
C3205      C3210   1.413       .  A
C3206      C3207   1.402       .  A
C3206      H3215   1.080       .  S
C3207      C3208   1.414       .  A
C3208      C3209   1.401       .  A
C3209      C3210   1.395       .  A
C3209      H3216   1.078       .  S
C3210      S3212   1.801       .  S
S3211      H3214   1.407       .  S
S3212      H3213   1.407       .  S
C3217      C3218   1.407       .  A
C3217      C3222   1.411       .  A
C3218      C3219   1.401       .  A
C3218      H3227   1.084       .  S
C3219      C3220   1.412       .  A
C3219      S3223   1.807       .  S
C3220      C3221   1.406       .  A
C3221      C3222   1.408       .  A
C3221      H3228   1.083       .  S
C3222      S3224   1.805       .  S
S3223      H3226   1.406       .  S
S3224      H3225   1.407       .  S
C3229      C3230   1.401       .  A
C3229      C3234   1.414       .  A
C3230      C3231   1.394       .  A
C3230      H3239   1.084       .  S
C3231      C3232   1.423       .  A
C3231      S3235   1.804       .  S
C3232      C3233   1.410       .  A
C3233      C3234   1.408       .  A
C3233      H3240   1.083       .  S
C3234      S3236   1.801       .  S
S3235      H3238   1.405       .  S
S3236      H3237   1.407       .  S
C3241      C3242   1.401       .  A
C3241      C3246   1.409       .  A
C3242      C3243   1.395       .  A
C3242      H3251   1.084       .  S
C3243      C3244   1.412       .  A
C3243      S3247   1.801       .  S
C3244      C3245   1.403       .  A
C3245      C3246   1.399       .  A
C3245      H3252   1.083       .  S
C3246      S3248   1.808       .  S
S3247      H3250   1.406       .  S
S3248      H3249   1.407       .  S
C3253      C3254   1.405       .  A
C3253      C3258   1.413       .  A
C3254      C3255   1.397       .  A
C3254      H3263   1.084       .  S
C3255      C3256   1.410       .  A
C3255      S3259   1.805       .  S
C3256      C3257   1.399       .  A
C3257      C3258   1.399       .  A
C3257      H3264   1.083       .  S
C3258      S3260   1.803       .  S
S3259      H3262   1.407       .  S
S3260      H3261   1.407       .  S
C3265      C3266   1.401       .  A
C3265      C3270   1.414       .  A
C3266      C3267   1.395       .  A
C3266      H3275   1.083       .  S
C3267      C3268   1.416       .  A
C3267      S3271   1.806       .  S
C3268      C3269   1.407       .  A
C3269      C3270   1.407       .  A
C3269      H3276   1.083       .  S
C3270      S3272   1.801       .  S
S3271      H3274   1.408       .  S
S3272      H3273   1.407       .  S
C3277      C3278   1.406       .  A
C3277      C3282   1.422       .  A
C3278      C3279   1.408       .  A
C3278      H3287   1.083       .  S
C3279      C3280   1.411       .  A
C3279      S3283   1.807       .  S
C3280      C3281   1.398       .  A
C3281      C3282   1.404       .  A
C3281      H3288   1.083       .  S
C3282      S3284   1.810       .  S
S3283      H3286   1.407       .  S
S3284      H3285   1.407       .  S
C3289      C3294   1.415   1_554  A
C3290      C3291   1.400       .  A
C3290      H3299   1.084       .  S
C3291      S3295   1.804       .  S
C3292      C3293   1.404       .  A
C3293      C3294   1.405       .  A
C3293      H3300   1.083       .  S
C3294      S3296   1.804       .  S
S3295      H3298   1.406       .  S
S3296      H3297   1.407       .  S
C3301      C3302   1.402       .  A
C3301      C3306   1.409       .  A
C3302      C3303   1.405       .  A
C3302      H3311   1.082       .  S
C3303      C3304   1.412       .  A
C3303      S3307   1.805       .  S
C3304      C3305   1.397       .  A
C3305      C3306   1.392       .  A
C3305      H3312   1.085       .  S
C3306      S3308   1.787       .  S
S3307      H3310   1.407       .  S
S3308      H3309   1.405       .  S
C3313      C3314   1.400       .  A
C3313      C3318   1.410       .  A
C3314      C3315   1.399       .  A
C3314      H3323   1.084       .  S
C3315      C3316   1.415       .  A
C3315      S3319   1.803       .  S
C3316      C3317   1.402       .  A
C3317      C3318   1.398       .  A
C3317      H3324   1.084       .  S
C3318      S3320   1.802       .  S
S3319      H3322   1.407       .  S
S3320      H3321   1.406       .  S
C3325      C3326   1.404       .  A
C3325      C3330   1.412       .  A
C3326      C3327   1.414       .  A
C3326      H3335   1.083       .  S
C3327      C3328   1.421       .  A
C3327      S3331   1.807       .  S
C3328      C3329   1.405       .  A
C3329      C3330   1.395       .  A
C3329      H3336   1.084       .  S
C3330      S3332   1.801       .  S
S3331      H3334   1.407       .  S
S3332      H3333   1.406       .  S
C3337      C3338   1.403       .  A
C3337      C3342   1.421       .  A
C3338      C3339   1.393       .  A
C3338      H3347   1.078   1_556  S
C3339      C3340   1.412       .  A
C3340      C3341   1.404       .  A
C3341      C3342   1.408       .  A
C3341      H3348   1.084       .  S
C3342      S3344   1.801       .  S
S3343      H3346   1.407       .  S
S3344      H3345   1.405       .  S
C3349      C3350   1.409       .  A
C3349      C3354   1.414       .  A
C3350      C3351   1.409       .  A
C3350      H3359   1.084       .  S
C3351      C3352   1.413       .  A
C3351      S3355   1.802       .  S
C3352      C3353   1.401       .  A
C3353      C3354   1.397       .  A
C3353      H3360   1.083       .  S
C3354      S3356   1.803       .  S
S3355      H3358   1.403       .  S
S3356      H3357   1.406       .  S
C3361      C3362   1.408       .  A
C3361      C3366   1.421       .  A
C3362      C3363   1.402       .  A
C3362      H3371   1.084       .  S
C3363      C3364   1.411       .  A
C3363      S3367   1.807       .  S
C3364      C3365   1.396       .  A
C3365      C3366   1.391       .  A
C3365      H3372   1.084       .  S
C3366      S3368   1.815       .  S
S3367      H3370   1.399       .  S
S3368      H3369   1.406       .  S
C3373      C3374   1.405       .  A
C3373      C3378   1.421       .  A
C3374      C3375   1.384       .  A
C3374      H3383   1.084       .  S
C3375      C3376   1.407       .  A
C3375      S3379   1.800       .  S
C3376      C3377   1.399       .  A
C3377      C3378   1.400       .  A
C3377      H3384   1.084       .  S
C3378      S3380   1.800       .  S
S3379      H3382   1.407       .  S
S3380      H3381   1.405       .  S
C3385      C3386   1.404       .  A
C3385      C3390   1.420       .  A
C3386      C3387   1.395       .  A
C3386      H3395   1.084       .  S
C3387      C3388   1.409       .  A
C3387      S3391   1.797       .  S
C3388      C3389   1.401       .  A
C3389      C3390   1.406       .  A
C3389      H3396   1.080       .  S
C3390      S3392   1.802       .  S
S3391      H3394   1.406       .  S
S3392      H3393   1.400       .  S
C3397      C3398   1.397       .  A
C3397      C3402   1.416       .  A
C3398      H3407   1.078       .  S
C3399      C3400   1.415       .  A
C3399      S3403   1.803       .  S
C3400      C3401   1.406       .  A
C3401      H3408   1.084       .  S
C3402      S3404   1.803       .  S
S3403      H3406   1.399       .  S
S3404      H3405   1.408       .  S
C3409      C3410   1.406       .  A
C3409      C3414   1.414       .  A
C3410      C3411   1.401       .  A
C3410      H3419   1.086       .  S
C3411      C3412   1.413       .  A
C3411      S3415   1.799       .  S
C3412      C3413   1.397       .  A
C3413      C3414   1.391       .  A
C3413      H3420   1.085       .  S
C3414      S3416   1.804       .  S
S3415      H3418   1.404       .  S
S3416      H3417   1.408       .  S
C3421      C3422   1.400       .  A
C3421      C3426   1.411       .  A
C3422      C3423   1.394       .  A
C3422      H3431   1.084       .  S
C3423      C3424   1.415       .  A
C3423      S3427   1.803       .  S
C3424      C3425   1.408       .  A
C3425      C3426   1.406       .  A
C3425      H3432   1.084       .  S
C3426      S3428   1.802       .  S
S3427      H3430   1.407       .  S
S3428      H3429   1.406       .  S
C3433      C3434   1.401       .  A
C3433      C3438   1.410       .  A
C3434      C3435   1.399       .  A
C3434      H3443   1.084       .  S
C3435      C3436   1.410       .  A
C3435      S3439   1.804       .  S
C3436      C3437   1.400       .  A
C3437      C3438   1.396       .  A
C3438      S3440   1.803       .  S
S3439      H3442   1.405       .  S
S3440      H3441   1.405       .  S
C3445      C3446   1.409       .  A
C3445      C3450   1.417       .  A
C3446      C3447   1.398       .  A
C3446      H3455   1.083       .  S
C3447      C3448   1.408       .  A
C3447      S3451   1.802       .  S
C3448      C3449   1.397       .  A
C3449      C3450   1.396       .  A
C3449      H3456   1.077       .  S
C3450      S3452   1.802       .  S
S3451      H3454   1.403       .  S
S3452      H3453   1.405       .  S
C3457      C3458   1.401       .  A
C3457      C3462   1.410       .  A
C3458      H3467   1.084       .  S
C3459      C3460   1.416       .  A
C3459      S3463   1.801       .  S
C3460      C3461   1.401       .  A
C3461      H3468   1.084       .  S
C3462      S3464   1.804       .  S
S3463      H3466   1.403       .  S
S3464      H3465   1.404       .  S
C3469      C3470   1.399       .  A
C3469      C3474   1.409       .  A
C3470      C3471   1.396   1_655  A
C3470      H3479   1.083       .  S
C3471      C3472   1.414       .  A
C3471      S3475   1.803       .  S
C3472      C3473   1.407       .  A
C3473      C3474   1.402   1_455  A
C3473      H3480   1.084       .  S
C3474      S3476   1.803       .  S
S3475      H3478   1.404       .  S
S3476      H3477   1.404       .  S
C3481      C3482   1.402       .  A
C3481      C3486   1.417       .  A
C3482      C3483   1.393       .  A
C3482      H3491   1.085       .  S
C3483      C3484   1.417       .  A
C3483      S3487   1.805       .  S
C3484      C3485   1.406       .  A
C3485      C3486   1.411       .  A
C3485      H3492   1.084       .  S
C3486      S3488   1.798       .  S
S3487      H3490   1.399       .  S
S3488      H3489   1.407       .  S
C3493      C3494   1.398       .  A
C3493      C3498   1.410   1_455  A
C3494      C3495   1.396       .  A
C3494      H3503   1.082       .  S
C3495      C3496   1.417   1_455  A
C3495      S3499   1.802       .  S
C3496      C3497   1.404       .  A
C3497      C3498   1.398       .  A
C3497      H3504   1.084       .  S
C3498      S3500   1.802       .  S
S3499      H3502   1.407       .  S
S3500      H3501   1.404       .  S
C3505      C3506   1.400       .  A
C3505      C3510   1.408       .  A
C3506      C3507   1.397       .  A
C3506      H3515   1.084       .  S
C3507      C3508   1.410       .  A
C3507      S3511   1.804       .  S
C3508      C3509   1.407       .  A
C3509      C3510   1.412       .  A
C3509      H3516   1.083       .  S
C3510      S3512   1.802   1_655  S
S3511      H3514   1.407       .  S
S3512      H3513   1.407   1_455  S
C3517      C3518   1.407       .  A
C3517      C3522   1.416       .  A
C3518      C3519   1.403       .  A
C3518      H3527   1.083       .  S
C3519      C3520   1.408       .  A
C3519      S3523   1.807       .  S
C3520      C3521   1.401       .  A
C3521      C3522   1.404       .  A
C3521      H3528   1.084       .  S
C3522      S3524   1.799       .  S
S3523      H3526   1.407       .  S
S3524      H3525   1.407       .  S
C3529      C3530   1.412       .  A
C3529      C3534   1.416       .  A
C3530      C3531   1.417       .  A
C3530      H3539   1.083       .  S
C3531      C3532   1.417       .  A
C3531      S3535   1.799       .  S
C3532      C3533   1.405       .  A
C3533      C3534   1.390       .  A
C3533      H3540   1.083       .  S
C3534      S3536   1.804       .  S
S3535      H3538   1.407       .  S
S3536      H3537   1.399       .  S
C3541      C3542   1.403       .  A
C3541      C3546   1.411       .  A
C3542      C3543   1.403       .  A
C3542      H3551   1.084       .  S
C3543      C3544   1.412       .  A
C3543      S3547   1.798       .  S
C3544      C3545   1.399       .  A
C3545      C3546   1.394       .  A
C3545      H3552   1.085       .  S
C3546      S3548   1.799       .  S
S3547      H3550   1.404       .  S
S3548      H3549   1.407       .  S
C3553      C3554   1.402       .  A
C3553      C3558   1.411       .  A
C3554      C3555   1.401       .  A
C3554      H3563   1.084       .  S
C3555      C3556   1.411       .  A
C3555      S3559   1.799       .  S
C3556      C3557   1.402       .  A
C3557      C3558   1.404       .  A
C3557      H3564   1.082       .  S
C3558      S3560   1.797       .  S
S3559      H3562   1.405       .  S
S3560      H3561   1.406       .  S
C3565      C3566   1.404       .  A
C3565      C3570   1.413       .  A
C3566      C3567   1.399       .  A
C3566      H3575   1.084       .  S
C3567      C3568   1.411       .  A
C3567      S3571   1.803       .  S
C3568      C3569   1.406       .  A
C3569      C3570   1.407       .  A
C3569      H3576   1.084       .  S
C3570      S3572   1.799       .  S
S3571      H3574   1.406       .  S
S3572      H3573   1.406       .  S
C3577      C3578   1.398       .  A
C3577      C3582   1.411       .  A
C3578      C3579   1.396       .  A
C3578      H3587   1.080       .  S
C3579      C3580   1.411       .  A
C3579      S3583   1.804       .  S
C3580      C3581   1.407       .  A
C3581      C3582   1.405       .  A
C3581      H3588   1.084       .  S
C3582      S3584   1.804       .  S
S3583      H3586   1.405       .  S
S3584      H3585   1.405       .  S
C3589      C3590   1.404       .  A
C3589      C3594   1.417       .  A
C3590      C3591   1.397       .  A
C3590      H3599   1.081       .  S
C3591      C3592   1.411       .  A
C3591      S3595   1.802       .  S
C3592      C3593   1.406       .  A
C3593      C3594   1.407       .  A
C3593      H3600   1.084       .  S
C3594      S3596   1.802       .  S
S3595      H3598   1.407       .  S
S3596      H3597   1.406       .  S
C3601      C3602   1.401   1_655  A
C3602      C3603   1.399       .  A
C3602      H3611   1.075   1_455  S
C3603      C3604   1.410       .  A
C3603      S3607   1.801       .  S
C3604      C3605   1.400       .  A
C3605      H3612   1.084       .  S
C3606      S3608   1.800       .  S
S3607      H3610   1.404       .  S
S3608      H3609   1.407   1_455  S
C3613      C3614   1.402       .  A
C3613      C3618   1.413       .  A
C3614      C3615   1.397       .  A
C3614      H3623   1.085       .  S
C3615      C3616   1.420       .  A
C3616      C3617   1.409       .  A
C3617      C3618   1.407       .  A
C3617      H3624   1.083       .  S
C3618      S3620   1.802       .  S
S3619      H3622   1.408       .  S
S3620      H3621   1.405       .  S
C3625      C3626   1.404       .  A
C3625      C3630   1.418       .  A
C3626      C3627   1.398       .  A
C3626      H3635   1.085       .  S
C3627      C3628   1.411       .  A
C3627      S3631   1.801       .  S
C3628      C3629   1.401       .  A
C3629      C3630   1.406       .  A
C3629      H3636   1.084       .  S
C3630      S3632   1.798       .  S
S3631      H3634   1.403       .  S
S3632      H3633   1.406       .  S
C3637      C3638   1.409       .  A
C3637      C3642   1.420       .  A
C3638      C3639   1.400       .  A
C3638      H3647   1.083       .  S
C3639      C3640   1.410       .  A
C3639      S3643   1.802       .  S
C3640      C3641   1.397       .  A
C3641      C3642   1.397       .  A
C3641      H3648   1.081       .  S
C3642      S3644   1.799       .  S
S3643      H3646   1.406       .  S
S3644      H3645   1.407       .  S
C3649      C3650   1.404       .  A
C3649      C3654   1.414       .  A
C3650      C3651   1.399       .  A
C3650      H3659   1.085       .  S
C3651      C3652   1.418       .  A
C3651      S3655   1.804       .  S
C3652      C3653   1.411       .  A
C3653      C3654   1.407       .  A
C3653      H3660   1.084       .  S
C3654      S3656   1.800       .  S
S3655      H3658   1.408       .  S
S3656      H3657   1.405       .  S
C3661      C3662   1.405   1_565  A
C3661      C3666   1.411       .  A
C3662      C3663   1.401       .  A
C3662      H3671   1.083       .  S
C3663      C3664   1.413       .  A
C3663      S3667   1.803       .  S
C3664      C3665   1.402   1_545  A
C3665      C3666   1.400       .  A
C3665      H3672   1.083       .  S
C3666      S3668   1.804       .  S
S3667      H3670   1.406       .  S
S3668      H3669   1.407       .  S
C3673      C3674   1.403       .  A
C3673      C3678   1.414       .  A
C3674      C3675   1.393       .  A
C3674      H3683   1.083       .  S
C3675      C3676   1.408       .  A
C3675      S3679   1.803       .  S
C3676      C3677   1.406       .  A
C3677      C3678   1.407       .  A
C3677      H3684   1.084       .  S
C3678      S3680   1.803       .  S
S3679      H3682   1.406       .  S
S3680      H3681   1.407       .  S
C3685      C3686   1.407   1_545  A
C3685      C3690   1.411   1_545  A
C3686      C3687   1.399       .  A
C3686      H3695   1.084       .  S
C3687      C3688   1.413       .  A
C3687      S3691   1.807       .  S
C3688      C3689   1.407       .  A
C3689      C3690   1.409       .  A
C3689      H3696   1.082       .  S
C3690      S3692   1.805   1_565  S
S3691      H3694   1.407       .  S
S3692      H3693   1.407       .  S
C3697      C3698   1.403       .  A
C3697      C3702   1.416       .  A
C3698      C3699   1.398       .  A
C3698      H3707   1.082       .  S
C3699      C3700   1.408       .  A
C3699      S3703   1.799       .  S
C3700      C3701   1.406       .  A
C3701      C3702   1.409       .  A
C3701      H3708   1.084       .  S
C3702      S3704   1.807       .  S
S3703      H3706   1.407       .  S
S3704      H3705   1.402       .  S
C3709      C3710   1.403       .  A
C3709      C3714   1.411       .  A
C3710      C3711   1.396       .  A
C3710      H3719   1.081       .  S
C3711      C3712   1.421       .  A
C3711      S3715   1.814       .  S
C3712      C3713   1.410       .  A
C3713      C3714   1.403       .  A
C3713      H3720   1.083       .  S
C3714      S3716   1.802       .  S
S3715      H3718   1.407       .  S
S3716      H3717   1.408       .  S
C3721      C3722   1.399       .  A
C3722      H3731   1.081       .  S
C3723      C3724   1.412       .  A
C3723      S3727   1.810       .  S
C3724      C3725   1.408       .  A
C3725      C3726   1.403   1_556  A
C3725      H3732   1.084       .  S
S3727      H3730   1.407       .  S
S3728      H3729   1.407       .  S
C3733      C3734   1.403       .  A
C3733      C3738   1.412       .  A
C3734      C3735   1.398       .  A
C3735      C3736   1.413       .  A
C3735      S3739   1.806       .  S
C3736      C3737   1.404       .  A
C3737      C3738   1.402       .  A
C3737      H3744   1.084       .  S
C3738      S3740   1.804       .  S
S3739      H3742   1.406       .  S
S3740      H3741   1.408       .  S
C3745      C3746   1.407       .  A
C3745      C3750   1.416       .  A
C3746      C3747   1.412       .  A
C3746      H3755   1.083       .  S
C3747      C3748   1.417       .  A
C3747      S3751   1.801       .  S
C3748      C3749   1.401       .  A
C3749      C3750   1.390       .  A
C3749      H3756   1.084       .  S
C3750      S3752   1.802       .  S
S3751      H3754   1.407       .  S
S3752      H3753   1.403       .  S
C3757      C3758   1.397       .  A
C3757      C3762   1.411       .  A
C3758      C3759   1.403       .  A
C3758      H3767   1.084       .  S
C3759      C3760   1.424       .  A
C3759      S3763   1.801       .  S
C3760      C3761   1.405       .  A
C3761      C3762   1.399       .  A
C3761      H3768   1.083       .  S
C3762      S3764   1.802       .  S
S3763      H3766   1.401       .  S
S3764      H3765   1.406       .  S
C3769      C3770   1.404       .  A
C3769      C3774   1.412       .  A
C3770      C3771   1.406   1_545  A
C3770      H3779   1.084       .  S
C3771      C3772   1.416       .  A
C3771      S3775   1.799       .  S
C3772      C3773   1.403       .  A
C3773      C3774   1.397   1_565  A
C3773      H3780   1.084       .  S
C3774      S3776   1.802       .  S
S3775      H3778   1.406       .  S
S3776      H3777   1.407       .  S
C3781      C3782   1.404       .  A
C3781      C3786   1.405       .  A
C3782      H3791   1.084       .  S
C3783      C3784   1.414       .  A
C3783      S3787   1.803       .  S
C3784      C3785   1.400       .  A
C3785      H3792   1.085       .  S
C3786      S3788   1.802       .  S
S3787      H3790   1.406       .  S
S3788      H3789   1.407       .  S
C3793      C3794   1.397       .  A
C3793      C3798   1.411       .  A
C3794      C3795   1.381       .  A
C3794      H3803   1.085       .  S
C3795      C3796   1.412       .  A
C3795      S3799   1.798       .  S
C3796      C3797   1.407       .  A
C3797      C3798   1.404       .  A
C3797      H3804   1.083       .  S
C3798      S3800   1.801       .  S
S3799      H3802   1.408       .  S
S3800      H3801   1.407       .  S
C3805      C3806   1.400       .  A
C3805      C3810   1.408       .  A
C3806      C3807   1.395       .  A
C3806      H3815   1.084       .  S
C3807      C3808   1.413       .  A
C3807      S3811   1.805       .  S
C3808      C3809   1.403       .  A
C3809      C3810   1.404       .  A
C3809      H3816   1.083       .  S
C3810      S3812   1.804       .  S
S3811      H3814   1.406       .  S
S3812      H3813   1.407       .  S
C3817      C3818   1.399       .  A
C3817      C3822   1.412       .  A
C3818      C3819   1.405       .  A
C3818      H3827   1.084       .  S
C3819      C3820   1.426       .  A
C3819      S3823   1.802       .  S
C3820      C3821   1.407       .  A
C3821      C3822   1.403       .  A
C3821      H3828   1.083       .  S
C3822      S3824   1.800       .  S
S3823      H3826   1.405       .  S
C3829      C3830   1.402       .  A
C3829      C3834   1.417       .  A
C3830      C3831   1.399       .  A
C3830      H3839   1.085       .  S
C3831      C3832   1.414       .  A
C3831      S3835   1.803       .  S
C3832      C3833   1.403       .  A
C3833      C3834   1.406       .  A
C3833      H3840   1.084       .  S
C3834      S3836   1.799       .  S
S3835      H3838   1.406       .  S
S3836      H3837   1.404       .  S
C3841      C3842   1.400       .  A
C3841      C3846   1.413       .  A
C3842      C3843   1.393       .  A
C3842      H3851   1.084       .  S
C3843      C3844   1.418       .  A
C3843      S3847   1.804       .  S
C3844      C3845   1.408       .  A
C3845      C3846   1.405       .  A
C3845      H3852   1.083       .  S
C3846      S3848   1.803       .  S
S3847      H3850   1.400       .  S
S3848      H3849   1.407       .  S
C3853      C3854   1.405       .  A
C3853      C3858   1.414       .  A
C3854      C3855   1.402       .  A
C3854      H3863   1.083       .  S
C3855      C3856   1.410       .  A
C3855      S3859   1.803       .  S
C3856      C3857   1.398       .  A
C3857      C3858   1.392       .  A
C3857      H3864   1.085       .  S
C3858      S3860   1.805       .  S
S3859      H3862   1.403       .  S
S3860      H3861   1.405       .  S
C3865      C3866   1.406       .  A
C3865      C3870   1.420       .  A
C3866      C3867   1.386       .  A
C3866      H3875   1.083       .  S
C3867      C3868   1.414       .  A
C3867      S3871   1.803       .  S
C3869      H3876   1.084       .  S
S3871      H3874   1.404   1_556  S
C3877      C3878   1.403       .  A
C3877      C3882   1.412       .  A
C3878      C3879   1.397       .  A
C3879      C3880   1.413       .  A
C3880      C3881   1.408       .  A
C3881      C3882   1.406       .  A
C3881      H3888   1.084       .  S
C3882      S3884   1.804       .  S
S3883      H3886   1.408       .  S
S3884      H3885   1.406       .  S
C3889      C3890   1.408       .  A
C3889      C3894   1.411       .  A
C3890      C3891   1.407       .  A
C3890      H3899   1.083       .  S
C3891      C3892   1.411       .  A
C3891      S3895   1.803       .  S
C3892      C3893   1.406       .  A
C3893      C3894   1.406       .  A
C3894      S3896   1.805       .  S
S3896      H3897   1.407       .  S
C3901      C3902   1.405       .  A
C3901      C3906   1.407       .  A
C3902      C3903   1.406       .  A
C3902      H3911   1.084       .  S
C3903      C3904   1.414       .  A
C3903      S3907   1.801       .  S
C3904      C3905   1.402       .  A
C3905      C3906   1.385       .  A
C3905      H3912   1.082       .  S
C3906      S3908   1.807       .  S
S3907      H3910   1.406       .  S
S3908      H3909   1.406       .  S
C3913      C3914   1.400       .  A
C3913      C3918   1.411       .  A
C3914      C3915   1.399       .  A
C3914      H3923   1.084       .  S
C3915      C3916   1.414       .  A
C3915      S3919   1.803       .  S
C3916      C3917   1.402       .  A
C3917      C3918   1.395       .  A
C3917      H3924   1.084       .  S
C3918      S3920   1.803       .  S
S3919      H3922   1.407       .  S
S3920      H3921   1.404       .  S
C3925      C3926   1.405       .  A
C3925      C3930   1.411       .  A
C3926      C3927   1.407       .  A
C3926      H3935   1.082       .  S
C3927      C3928   1.412       .  A
C3927      S3931   1.808       .  S
C3928      C3929   1.407       .  A
C3929      C3930   1.399       .  A
C3929      H3936   1.084       .  S
C3930      S3932   1.806       .  S
S3931      H3934   1.407       .  S
S3932      H3933   1.406       .  S
C3937      C3938   1.402       .  A
C3937      C3942   1.411       .  A
C3938      C3939   1.396       .  A
C3938      H3947   1.084       .  S
C3939      C3940   1.414       .  A
C3939      S3943   1.806       .  S
C3940      C3941   1.407       .  A
C3941      C3942   1.405       .  A
C3941      H3948   1.083       .  S
C3942      S3944   1.805       .  S
S3943      H3946   1.407       .  S
S3944      H3945   1.402       .  S
C3949      C3950   1.409       .  A
C3950      H3959   1.083       .  S
C3951      C3952   1.409       .  A
C3951      S3955   1.803       .  S
C3952      C3953   1.397       .  A
C3953      C3954   1.400       .  A
C3953      H3960   1.084       .  S
S3955      H3958   1.404       .  S
S3956      H3957   1.408       .  S
C3961      C3962   1.403       .  A
C3961      C3966   1.413       .  A
C3962      C3963   1.401       .  A
C3962      H3971   1.084       .  S
C3963      C3964   1.412       .  A
C3963      S3967   1.804       .  S
C3964      C3965   1.397       .  A
C3965      C3966   1.390       .  A
C3965      H3972   1.082       .  S
C3966      S3968   1.805       .  S
S3967      H3970   1.402       .  S
S3968      H3969   1.406       .  S
C3973      C3974   1.398       .  A
C3973      C3978   1.413       .  A
C3974      C3975   1.401       .  A
C3974      H3983   1.082       .  S
C3975      C3976   1.423       .  A
C3975      S3979   1.803       .  S
C3976      C3977   1.406       .  A
C3977      C3978   1.404       .  A
C3977      H3984   1.084       .  S
C3978      S3980   1.803       .  S
S3979      H3982   1.403       .  S
S3980      H3981   1.404       .  S
C3985      C3986   1.400       .  A
C3985      C3990   1.411       .  A
C3986      C3987   1.400       .  A
C3986      H3995   1.083       .  S
C3987      C3988   1.418       .  A
C3987      S3991   1.801       .  S
C3988      C3989   1.402       .  A
C3989      C3990   1.388       .  A
C3989      H3996   1.084       .  S
C3990      S3992   1.804       .  S
S3991      H3994   1.408       .  S
S3992      H3993   1.398       .  S
C3997      C3998   1.396       .  A
C3998      H4007   1.084       .  S
C3999      C4000   1.417       .  A
C3999      S4003   1.813       .  S
C4000      C4001   1.405       .  A
C4001      C4002   1.395       .  A
C4001      H4008   1.084       .  S
S4003      H4006   1.407       .  S
S4004      H4005   1.406       .  S
C4009      C4010   1.402       .  A
C4009      C4014   1.411       .  A
C4010      C4011   1.397       .  A
C4010      H4019   1.085       .  S
C4011      C4012   1.410       .  A
C4012      C4013   1.401       .  A
C4013      C4014   1.400       .  A
C4013      H4020   1.085       .  S
C4014      S4016   1.803       .  S
S4015      H4018   1.405       .  S
S4016      H4017   1.405       .  S
C4021      C4022   1.404       .  A
C4021      C4026   1.410       .  A
C4022      C4023   1.409       .  A
C4022      H4031   1.084       .  S
C4023      C4024   1.420       .  A
C4023      S4027   1.802       .  S
C4024      C4025   1.405       .  A
C4025      C4026   1.399       .  A
C4025      H4032   1.084       .  S
C4026      S4028   1.799       .  S
S4027      H4030   1.407       .  S
S4028      H4029   1.405       .  S
C4033      C4034   1.409       .  A
C4033      C4038   1.411       .  A
C4034      C4035   1.406       .  A
C4034      H4043   1.084       .  S
C4035      C4036   1.412       .  A
C4035      S4039   1.799       .  S
C4036      C4037   1.404       .  A
C4037      C4038   1.391       .  A
C4037      H4044   1.083       .  S
C4038      S4040   1.804       .  S
S4039      H4042   1.406       .  S
S4040      H4041   1.398       .  S
C4045      C4046   1.407       .  A
C4045      C4050   1.424       .  A
C4046      C4047   1.402       .  A
C4046      H4055   1.082       .  S
C4047      C4048   1.412       .  A
C4047      S4051   1.808       .  S
C4048      C4049   1.401       .  A
C4049      C4050   1.409       .  A
C4049      H4056   1.084       .  S
C4050      S4052   1.800       .  S
S4051      H4054   1.406       .  S
S4052      H4053   1.408       .  S
C4057      C4058   1.398       .  A
C4057      C4062   1.407       .  A
C4058      C4059   1.391       .  A
C4058      H4067   1.084       .  S
C4059      C4060   1.412       .  A
C4059      S4063   1.804       .  S
C4060      C4061   1.407       .  A
C4061      C4062   1.408       .  A
C4061      H4068   1.083       .  S
C4062      S4064   1.804       .  S
S4063      H4066   1.406       .  S
S4064      H4065   1.407       .  S
C4069      C4070   1.396       .  A
C4069      C4074   1.410       .  A
C4070      C4071   1.396       .  A
C4070      H4079   1.084       .  S
C4071      C4072   1.420       .  A
C4071      S4075   1.798       .  S
C4072      C4073   1.408       .  A
C4073      C4074   1.399       .  A
C4073      H4080   1.083       .  S
C4074      S4076   1.809       .  S
S4075      H4078   1.408       .  S
S4076      H4077   1.402       .  S
C4081      C4082   1.402       .  A
C4081      C4086   1.412       .  A
C4082      C4083   1.404       .  A
C4082      H4091   1.083       .  S
C4083      C4084   1.413       .  A
C4083      S4087   1.802       .  S
C4084      C4085   1.401       .  A
C4085      C4086   1.399       .  A
C4085      H4092   1.084       .  S
C4086      S4088   1.802       .  S
S4087      H4090   1.404       .  S
S4088      H4089   1.406       .  S
C4093      C4094   1.408       .  A
C4093      C4098   1.414       .  A
C4094      C4095   1.412       .  A
C4094      H4103   1.084       .  S
C4095      C4096   1.417       .  A
C4095      S4099   1.804       .  S
C4096      C4097   1.401       .  A
C4097      C4098   1.394       .  A
C4097      H4104   1.085       .  S
C4098      S4100   1.800       .  S
S4099      H4102   1.401       .  S
S4100      H4101   1.398       .  S
C4105      C4106   1.408   1_655  A
C4105      C4110   1.414       .  A
C4106      C4107   1.400       .  A
C4106      H4115   1.084       .  S
C4107      C4108   1.409       .  A
C4107      S4111   1.800       .  S
C4108      C4109   1.405       .  A
C4109      C4110   1.405   1_455  A
C4109      H4116   1.084       .  S
C4110      S4112   1.803       .  S
S4111      H4114   1.404       .  S
S4112      H4113   1.408       .  S
C4117      C4118   1.405       .  A
C4117      C4122   1.416       .  A
C4118      C4119   1.408       .  A
C4118      H4127   1.083       .  S
C4119      C4120   1.416       .  A
C4119      S4123   1.800       .  S
C4120      C4121   1.403       .  A
C4121      C4122   1.393       .  A
C4121      H4128   1.084       .  S
C4122      S4124   1.804       .  S
S4123      H4126   1.408       .  S
S4124      H4125   1.405       .  S
C4129      C4130   1.406       .  A
C4129      C4134   1.425       .  A
C4130      C4131   1.396       .  A
C4130      H4139   1.084       .  S
C4131      C4132   1.411       .  A
C4131      S4135   1.800       .  S
C4132      C4133   1.399       .  A
C4133      C4134   1.405       .  A
C4133      H4140   1.084       .  S
C4134      S4136   1.801       .  S
S4135      H4138   1.405       .  S
S4136      H4137   1.408       .  S
C4141      C4142   1.402       .  A
C4141      C4146   1.409       .  A
C4142      C4143   1.399       .  A
C4142      H4151   1.083       .  S
C4143      C4144   1.413       .  A
C4143      S4147   1.807       .  S
C4144      C4145   1.404       .  A
C4145      C4146   1.397       .  A
C4145      H4152   1.084       .  S
C4146      S4148   1.802       .  S
S4147      H4150   1.407       .  S
S4148      H4149   1.405       .  S
C4153      C4154   1.406       .  A
C4153      C4158   1.414       .  A
C4154      C4155   1.405       .  A
C4154      H4163   1.084       .  S
C4155      C4156   1.413       .  A
C4155      S4159   1.808       .  S
C4156      C4157   1.397       .  A
C4157      C4158   1.393       .  A
C4157      H4164   1.083       .  S
C4158      S4160   1.804       .  S
S4159      H4162   1.401       .  S
S4160      H4161   1.405       .  S
C4165      C4166   1.403       .  A
C4165      C4170   1.413       .  A
C4166      C4167   1.405       .  A
C4166      H4175   1.084       .  S
C4167      C4168   1.418       .  A
C4167      S4171   1.801       .  S
C4168      C4169   1.404       .  A
C4169      C4170   1.392       .  A
C4169      H4176   1.084       .  S
C4170      S4172   1.806       .  S
S4171      H4174   1.404       .  S
S4172      H4173   1.405       .  S
