geometry optimzed in LAMMPS
_audit_creation_date              2020-12-01 
_audit_creation_method            'lammps2cif' 
_symmetry_space_group_name_H-M    'P1' 
_symmetry_Int_Tables_number       1 
_symmetry_cell_setting            triclinic 
loop_ 
_symmetry_equiv_pos_as_xyz 
  x,y,z 
_cell_length_a                    28.35711531 
_cell_length_b                    28.286807167009435 
_cell_length_c                    39.127448466710206 
_cell_angle_alpha                 89.78116607085899 
_cell_angle_beta                  90.44990569042722 
_cell_angle_gamma                 89.94765012662192 
loop_ 
_atom_site_label 
_atom_site_type_symbol 
_atom_site_fract_x 
_atom_site_fract_y 
_atom_site_fract_z 
_atom_site_charge 
O1          O  0.08126653  0.59550058  0.68388200    -0.81100
O2          O  0.09156657  0.72907110  0.56091547    -0.65800
O3          O  0.08151205  0.68049015  0.65010262    -1.12400
C4          C  0.92490352  0.63998285  0.62471769     1.05800
O5          O  0.01798855  0.72912441  0.54058040    -0.79000
O6          O  0.98184746  0.74947121  0.60119189    -0.66600
Ni7        Ni  0.12830357  0.63979238  0.66872293     1.34900
C8          C  0.98707770  0.75415424  0.63319647     0.84500
O9          O  0.14502910  0.73381548  0.61638557    -0.79600
O10         O  0.17662698  0.68383580  0.65579590    -0.89800
C11         C  0.06107204  0.74151403  0.53889327     0.84100
O12         O  0.14243125  0.60179382  0.62934770    -0.68000
O13         O  0.92797479  0.66961458  0.60034829    -0.87300
C14         C  0.14447061  0.61476584  0.59826269     0.84900
C15         C  0.17852790  0.72016929  0.63623364     1.06500
H16         H  0.03604407  0.63784541  0.58624689     0.38300
O17         O  0.02900441  0.66736550  0.59740729    -1.10000
O18         O  0.99504936  0.71927612  0.65397840    -0.66600
Ni19       Ni  0.02076367  0.65482973  0.64561525     1.26300
O20         O  0.12365372  0.65170303  0.58748879    -0.66900
O21         O  0.96028203  0.62643563  0.64178898    -0.79200
C22         C  0.04921990  0.60931138  0.70424216     0.84300
O23         O  0.01950304  0.64006225  0.69363448    -0.66300
Ni24       Ni  0.97764471  0.69671795  0.57276100     1.27400
Ni25       Ni  0.08709765  0.70260955  0.60533719     1.26100
H26         H  0.08011666  0.70763558  0.66499078     0.38800
O27         O  0.07978288  0.59191513  0.86771450    -0.81100
O28         O  0.22804881  0.58124602  0.98526911    -0.65800
O29         O  0.16796954  0.58615049  0.89862560    -1.12400
C30         C  0.13498128  0.42620253  0.90996074     1.05800
O31         O  0.22712880  0.50446680  0.99899072    -0.79000
O32         O  0.24571933  0.48852669  0.93292696    -0.66600
Ni33       Ni  0.12523999  0.63532726  0.88690787     1.34900
C34         C  0.24360952  0.49345351  0.90071988     0.84500
O35         O  0.22578098  0.64429099  0.93463875    -0.79600
O36         O  0.16925343  0.68116345  0.90366196    -0.89800
C37         C  0.24007827  0.54677054  0.00423771     0.84100
O38         O  0.09135681  0.63949821  0.92913014    -0.68000
O39         O  0.17154848  0.42704684  0.92890928    -0.87300
C40         C  0.10954396  0.64062869  0.95893886     0.84900
C41         C  0.20815003  0.68124544  0.92046065     1.06500
H42         H  0.13421278  0.52920353  0.96119320     0.38300
O43         O  0.16162502  0.52519364  0.94700604    -1.10000
O44         O  0.20460621  0.50045321  0.88415371    -0.66600
Ni45       Ni  0.14256551  0.52493002  0.89958173     1.26300
O46         O  0.14741161  0.61861853  0.96626407    -0.66900
O47         O  0.11463296  0.46380431  0.90063714    -0.79200
C48         C  0.09189718  0.56207753  0.84505558     0.84300
O49         O  0.12242484  0.53070896  0.85288083    -0.66300
Ni50       Ni  0.19661671  0.47089568  0.96236269     1.27400
Ni51       Ni  0.19571073  0.58460586  0.94230731     1.26100
H52         H  0.19303931  0.58732085  0.88204828     0.38800
O53         O  0.45158665  0.94660054  0.68191490    -0.81100
O54         O  0.44455850  0.81013104  0.56219737    -0.65800
O55         O  0.45083541  0.86219941  0.65046724    -1.12400
C56         C  0.60551096  0.91274988  0.61885067     1.05800
O57         O  0.52108317  0.79429297  0.55652235    -0.79000
O58         O  0.58006595  0.80936438  0.60914829    -0.66600
Ni59       Ni  0.40400035  0.90237149  0.66788155     1.34900
C60         C  0.56166785  0.79532207  0.63677711     0.84500
O61         O  0.38780124  0.80753291  0.61654199    -0.79600
O62         O  0.35584817  0.85757837  0.65524427    -0.89800
C63         C  0.47787191  0.78549875  0.55015536     0.84100
O64         O  0.38977925  0.93877975  0.62771231    -0.68000
O65         O  0.59549525  0.89928437  0.58861408    -0.87300
C66         C  0.38777663  0.92514263  0.59686491     0.84900
C67         C  0.35398387  0.82139717  0.63561747     1.06500
H68         H  0.49589412  0.90285769  0.58840505     0.38300
O69         O  0.50384513  0.87310123  0.59922708    -1.10000
O70         O  0.53477067  0.82124393  0.65519316    -0.66600
Ni71       Ni  0.51303934  0.88610977  0.64682069     1.26300
O72         O  0.40930162  0.88850780  0.58655838    -0.66900
O73         O  0.57727112  0.90830228  0.64378854    -0.79200
C74         C  0.48230425  0.93266054  0.70365012     0.84300
O75         O  0.51335210  0.90240417  0.69445922    -0.66300
Ni76       Ni  0.55535753  0.84847277  0.57384928     1.27400
Ni77       Ni  0.44602047  0.83831102  0.60623148     1.26100
H78         H  0.45154540  0.83536469  0.66582843     0.38800
O79         O  0.43707363  0.94476753  0.86430990    -0.81100
O80         O  0.29129266  0.95294230  0.97944927    -0.65800
O81         O  0.35188918  0.95161694  0.89452566    -1.12400
C82         C  0.39368147  0.10854218  0.91295844     1.05800
O83         O  0.30802731  0.02244782  0.00317323    -0.79000
O84         O  0.28575302  0.05254981  0.93938206    -0.66600
Ni85       Ni  0.39126480  0.90132503  0.88187951     1.34900
C86         C  0.28233663  0.04793899  0.90712145     0.84500
O87         O  0.28940737  0.89637166  0.92637566    -0.79600
O88         O  0.34622050  0.85567600  0.89868335    -0.89800
C89         C  0.28551108  0.98355362  0.00252185     0.84100
O90         O  0.42646421  0.89757199  0.92334267    -0.68000
O91         O  0.36421567  0.10614706  0.93714695    -0.87300
C92         C  0.40866021  0.89087887  0.95247466     0.84900
C93         C  0.30633877  0.85842334  0.91375516     1.06500
H94         H  0.39358356  0.99638510  0.95820080     0.38300
O95         O  0.36551104  0.00578276  0.94579099    -1.10000
O96         O  0.31768544  0.03926549  0.88728138    -0.66600
Ni97       Ni  0.38050377  0.01124938  0.89765930     1.26300
O98         O  0.36947310  0.90954253  0.96065340    -0.66900
O99         O  0.41051806  0.07173307  0.89957437    -0.79200
C100        C  0.42626784  0.97573489  0.84194104     0.84300
O101        O  0.39723093  0.00845132  0.84995237    -0.66300
Ni102      Ni  0.33864634  0.05955096  0.96795565     1.27400
Ni103      Ni  0.32492953  0.95114434  0.93773495     1.26100
H104        H  0.32672152  0.95303840  0.87773553     0.38800
O105        O  0.59501408  0.44270469  0.66437850    -0.81100
O106        O  0.71853571  0.45925892  0.53767466    -0.65800
O107        O  0.67692179  0.44950816  0.62845597    -1.12400
C108        C  0.62374405  0.60862571  0.61352150     1.05800
O109        O  0.73780783  0.53536420  0.53887956    -0.79000
O110        O  0.72931415  0.58301421  0.59711788    -0.66600
Ni111      Ni  0.63824784  0.39942081  0.64311979     1.34900
C112        C  0.74073793  0.56476611  0.62567078     0.84500
O113        O  0.72840058  0.39349365  0.58639235    -0.79600
O114        O  0.68108661  0.35428180  0.62317716    -0.89800
C115        C  0.74466291  0.49320028  0.52867657     0.84100
O116        O  0.59729910  0.39356129  0.60407855    -0.68000
O117        O  0.63813680  0.60647367  0.58269770    -0.87300
C118        C  0.61028601  0.39309029  0.57313541     0.84900
C119        C  0.71522117  0.35575011  0.60185126     1.06500
H120        H  0.63100377  0.50604098  0.57211007     0.38300
O121        O  0.66153562  0.51161372  0.58273562    -1.10000
O122        O  0.71558688  0.53415485  0.64139865    -0.66600
Ni123      Ni  0.65203728  0.51142842  0.63127928     1.26300
O124        O  0.64464826  0.41780011  0.56244905    -0.66900
O125        O  0.62841129  0.57485631  0.63477287    -0.79200
C126        C  0.60864573  0.47240242  0.68682620     0.84300
O127        O  0.63929013  0.50348435  0.67888562    -0.66300
Ni128      Ni  0.68612208  0.56750810  0.56172817     1.27400
Ni129      Ni  0.69603539  0.45275907  0.58286059     1.26100
H130        H  0.70531936  0.44781319  0.64255152     0.38800
O131        O  0.58206266  0.43873356  0.84783573    -0.81100
O132        O  0.56727516  0.31060512  0.97209557    -0.65800
O133        O  0.57761485  0.35602813  0.88221166    -1.12400
C134        C  0.42418028  0.42047115  0.89944959     1.05800
O135        O  0.48904030  0.30147702  0.97294447    -0.79000
O136        O  0.43819951  0.31814140  0.91606034    -0.66600
Ni137      Ni  0.62688570  0.39620413  0.86889726     1.34900
C138        C  0.45744536  0.29807307  0.89073745     0.84500
O139        O  0.63300257  0.30120715  0.92244899    -0.79600
O140        O  0.67256098  0.35326065  0.88871886    -0.89800
C141        C  0.53054778  0.28932161  0.98218455     0.84100
O142        O  0.63228714  0.43552684  0.90871306    -0.68000
O143        O  0.43025795  0.41129034  0.93116438    -0.87300
C144        C  0.63510318  0.42013761  0.93919963     0.84900
C145        C  0.67059943  0.31620637  0.90769613     1.06500
H146        H  0.52752385  0.40453817  0.93752073     0.38300
O147        O  0.51871000  0.37416357  0.92830779    -1.10000
O148        O  0.49111566  0.31747656  0.87383337    -0.66600
Ni149      Ni  0.51612062  0.38188189  0.87982821     1.26300
O150        O  0.61206034  0.38406032  0.94871580    -0.66900
O151        O  0.45308723  0.40730461  0.87671793    -0.79200
C152        C  0.55396488  0.42428363  0.82441064     0.84300
O153        O  0.52277557  0.39330870  0.83187324    -0.66300
Ni154      Ni  0.46247904  0.35745756  0.95117663     1.27400
Ni155      Ni  0.57474932  0.33549013  0.92740897     1.26100
H156        H  0.57891438  0.32851191  0.86767836     0.38800
O157        O  0.93420108  0.10244783  0.66451771    -0.81100
O158        O  0.83055978  0.07882397  0.52868872    -0.65800
O159        O  0.85675362  0.09264214  0.62309400    -1.12400
C160        C  0.91830796  0.93631610  0.61602355     1.05800
O161        O  0.80879774  0.00362189  0.53237286    -0.79000
O162        O  0.81252489  0.95649636  0.59182050    -0.66600
Ni163      Ni  0.89234856  0.14377664  0.63995472     1.34900
C164        C  0.79724003  0.97463868  0.61919030     0.84500
O165        O  0.81207365  0.14697554  0.57482972    -0.79600
O166        O  0.85177718  0.18736355  0.61596161    -0.89800
C167        C  0.80524626  0.04456956  0.51865904     0.84100
O168        O  0.93835260  0.14924675  0.60521564    -0.68000
O169        O  0.90614773  0.93668531  0.58441023    -0.87300
C170        C  0.93420658  0.14439301  0.57326647     0.84900
C171        C  0.82081739  0.18448467  0.59205229     1.06500
H172        H  0.91140118  0.03475631  0.57260754     0.38300
O173        O  0.87979101  0.02953470  0.58074828    -1.10000
O174        O  0.81943312  0.00673454  0.63583806    -0.66600
Ni175      Ni  0.88307048  0.03178758  0.62973186     1.26300
O176        O  0.90069500  0.12072681  0.55988750    -0.66900
O177        O  0.90913187  0.96985877  0.63640936    -0.79200
C178        C  0.91970479  0.07333432  0.68685396     0.84300
O179        O  0.89000294  0.04169351  0.67805277    -0.66300
Ni180      Ni  0.85888547  0.97300205  0.55929266     1.27400
Ni181      Ni  0.84530563  0.08776603  0.57583867     1.26100
H182        H  0.82657487  0.09393326  0.63435900     0.38800
O183        O  0.94134228  0.10216007  0.84757232    -0.81100
O184        O  0.94716322  0.21520601  0.97738445    -0.65800
O185        O  0.94593200  0.18267351  0.88456006    -1.12400
C186        C  0.09759486  0.11750413  0.90911806     1.05800
O187        O  0.02242953  0.23483638  0.98049490    -0.79000
O188        O  0.07911215  0.22375110  0.92632738    -0.66600
Ni189      Ni  0.89696091  0.14641961  0.86547219     1.34900
C190        C  0.06459934  0.23906418  0.89760181     0.84500
O191        O  0.88630142  0.23294434  0.92528269    -0.79600
O192        O  0.85172286  0.19047494  0.88295435    -0.89800
C193        C  0.97961625  0.24083732  0.98947297     0.84100
O194        O  0.88301900  0.10407364  0.90226991    -0.68000
O195        O  0.09156164  0.13025623  0.94013454    -0.87300
C196        C  0.88074835  0.11455508  0.93362206     0.84900
C197        C  0.85087585  0.22268407  0.90596821     1.06500
H198        H  0.99294750  0.13010230  0.94204789     0.38300
O199        O  0.00103809  0.16092686  0.93326260    -1.10000
O200        O  0.03380039  0.21762720  0.87918163    -0.66600
Ni201      Ni  0.00666881  0.15465103  0.88480637     1.26300
O202        O  0.90567770  0.14686395  0.94700070    -0.66900
O203        O  0.06876172  0.12743616  0.88508650    -0.79200
C204        C  0.97185318  0.11634264  0.82627026     0.84300
O205        O  0.00382842  0.14500848  0.83631149    -0.66300
Ni206      Ni  0.05439260  0.18116445  0.95917825     1.27400
Ni207      Ni  0.94432848  0.19799182  0.93096237     1.26100
H208        H  0.94707989  0.21187680  0.87166735     0.38800
O209        O  0.79298864  0.53134469  0.03556166    -0.81100
O210        O  0.89143878  0.50330702  0.18229858    -0.65800
O211        O  0.86569795  0.51333403  0.08569246    -1.12400
C212        C  0.81521198  0.35481443  0.10712194     1.05800
O213        O  0.93599084  0.44413331  0.16633167    -0.79000
O214        O  0.93076621  0.38873309  0.10942358    -0.66600
Ni215      Ni  0.83466091  0.56746301  0.06554593     1.34900
C216        C  0.92176456  0.39423066  0.07790069     0.84500
O217        O  0.90053411  0.57528162  0.13883924    -0.79600
O218        O  0.87012039  0.61209023  0.09307710    -0.89800
C219        C  0.92299506  0.47248791  0.18952440     0.84100
O220        O  0.78526928  0.56685637  0.09713569    -0.68000
O221        O  0.84702918  0.35450414  0.13055676    -0.87300
C222        C  0.77935147  0.55105052  0.12709114     0.84900
C223        C  0.89300620  0.61233786  0.12129536     1.06500
H224        H  0.82416909  0.44786109  0.14423284     0.38300
O225        O  0.85289894  0.44982087  0.13118229    -1.10000
O226        O  0.88996037  0.42191280  0.06657385    -0.66600
Ni227      Ni  0.83509732  0.45202102  0.08511065     1.26300
O228        O  0.81219862  0.53250318  0.14559625    -0.66900
O229        O  0.80575568  0.39066346  0.08802855    -0.79200
C230        C  0.78877721  0.48836599  0.02643925     0.84300
O231        O  0.81468815  0.45612090  0.03894255    -0.66300
Ni232      Ni  0.89131314  0.40013305  0.14792445     1.27400
Ni233      Ni  0.87669764  0.51211085  0.13463013     1.26100
H234        H  0.89595873  0.51060675  0.07477527     0.38800
O235        O  0.04220078  0.30221529  0.47661890    -0.81100
O236        O  0.00336265  0.39688207  0.33771045    -0.65800
O237        O  0.01010991  0.37698321  0.43423313    -1.12400
C238        C  0.85914874  0.31564608  0.41428695     1.05800
O239        O  0.94178747  0.43935483  0.35242555    -0.79000
O240        O  0.89602596  0.43616134  0.41309492    -0.66600
Ni241      Ni  0.06729825  0.35973886  0.45642715     1.34900
C242        C  0.89537612  0.42358990  0.44423356     0.84500
O243        O  0.07318898  0.41292991  0.38311905    -0.79600
O244        O  0.09754944  0.41514183  0.43764089    -0.89800
C245        C  0.97087036  0.42638579  0.32967354     0.84100
O246        O  0.09209890  0.32237879  0.42044073    -0.68000
O247        O  0.85594636  0.35224313  0.39498338    -0.87300
C248        C  0.07225659  0.30331538  0.39477787     0.84900
C249        C  0.10231377  0.42596997  0.40611666     1.06500
H250        H  0.94991848  0.32974522  0.37391754     0.38300
O251        O  0.95049014  0.35756841  0.38819902    -1.10000
O252        O  0.91697199  0.38671667  0.45459082    -0.66600
Ni253      Ni  0.95465389  0.33766882  0.43378289     1.26300
O254        O  0.03736142  0.32243971  0.37887192    -0.66900
O255        O  0.89720758  0.30198205  0.42943948    -0.79200
C256        C  0.00129128  0.29045830  0.48691410     0.84300
O257        O  0.96431903  0.31330391  0.47863143    -0.66300
Ni258      Ni  0.89969667  0.39564260  0.37425262     1.27400
Ni259      Ni  0.01100433  0.38555814  0.38580028     1.26100
H260        H  0.00143574  0.40708868  0.44387052     0.38800
O261        O  0.71976346  0.01312641  0.02711548    -0.81100
O262        O  0.62586585  0.03217216  0.17540288    -0.65800
O263        O  0.65050831  0.02885505  0.07878166    -1.12400
C264        C  0.70302023  0.18524414  0.10424621     1.05800
O265        O  0.58289094  0.09434444  0.16269650    -0.79000
O266        O  0.58652991  0.15014180  0.10646125    -0.66600
Ni267      Ni  0.68134377  0.97578066  0.05770687     1.34900
C268        C  0.59338676  0.14578105  0.07472020     0.84500
O269        O  0.61357613  0.96430093  0.12914578    -0.79600
O270        O  0.64877566  0.92952663  0.08509411    -0.89800
C271        C  0.59625282  0.06361552  0.18446221     0.84100
O272        O  0.73213967  0.97732686  0.08865205    -0.68000
O273        O  0.67084851  0.18497842  0.12701880    -0.87300
C274        C  0.73713781  0.98858551  0.11974735     0.84900
C275        C  0.62342564  0.92792357  0.11175647     1.06500
H276        H  0.69383810  0.08912043  0.13987236     0.38300
O277        O  0.66498999  0.08881717  0.12652229    -1.10000
O278        O  0.62723599  0.12142543  0.06289475    -0.66600
Ni279      Ni  0.68231407  0.08956817  0.08041518     1.26300
O280        O  0.70342670  0.00354330  0.13868125    -0.66900
O281        O  0.71283442  0.14992224  0.08516601    -0.79200
C282        C  0.72473018  0.05644571  0.01917100     0.84300
O283        O  0.70229215  0.08875269  0.03428505    -0.66300
Ni284      Ni  0.62748584  0.13845215  0.14431739     1.27400
Ni285      Ni  0.63957946  0.02688080  0.12757724     1.26100
H286        H  0.62035305  0.03266709  0.06751916     0.38800
O287        O  0.51193361  0.22570151  0.48101287    -0.81100
O288        O  0.52778771  0.14469578  0.33398808    -0.65800
O289        O  0.53039929  0.15550573  0.43139772    -1.12400
C290        C  0.68070078  0.22134831  0.40553583     1.05800
O291        O  0.59213101  0.10333148  0.34419844    -0.79000
O292        O  0.65900927  0.10932616  0.39586246    -0.66600
Ni293      Ni  0.47762531  0.17542769  0.45743391     1.34900
C294        C  0.65537568  0.10907377  0.42818482     0.84500
O295        O  0.46273782  0.12553371  0.38132865    -0.79600
O296        O  0.43769653  0.12838754  0.43563439    -0.89800
C297        C  0.55882145  0.11514677  0.32384403     0.84100
O298        O  0.45514846  0.22207463  0.42654251    -0.68000
O299        O  0.67744220  0.19748926  0.37782877    -0.87300
C300        C  0.46896549  0.23837139  0.39810335     0.84900
C301        C  0.43232844  0.11680965  0.40423251     1.06500
H302        H  0.58319961  0.21178499  0.37411825     0.38300
O303        O  0.58555497  0.18082270  0.38442953    -1.10000
O304        O  0.62481608  0.13373098  0.44396872    -0.66600
Ni305      Ni  0.58896316  0.19005081  0.43166737     1.26300
O306        O  0.49768982  0.21635978  0.37850706    -0.66900
O307        O  0.64839581  0.22323690  0.42840221    -0.79200
C308        C  0.55488066  0.23070055  0.49044004     0.84300
O309        O  0.58666587  0.20345839  0.47912953    -0.66300
Ni310      Ni  0.63448869  0.15071624  0.36125071     1.27400
Ni311      Ni  0.52486655  0.15264592  0.38272705     1.26100
H312        H  0.53714727  0.12367258  0.43908875     0.38800
O313        O  0.51237355  0.73059930  0.04936010    -0.81100
O314        O  0.50671659  0.64271783  0.19534374    -0.65800
O315        O  0.49415397  0.65968446  0.09855856    -1.12400
C316        C  0.34779854  0.72091250  0.13415585     1.05800
O317        O  0.44451325  0.59853216  0.18559389    -0.79000
O318        O  0.37900244  0.60282785  0.13396345    -0.66600
Ni319      Ni  0.54554441  0.67749878  0.07038085     1.34900
C320        C  0.37633883  0.61180854  0.10225247     0.84500
O321        O  0.56627593  0.62652376  0.14446082    -0.79600
O322        O  0.58431275  0.62670450  0.08890846    -0.89800
C323        C  0.47697340  0.61213436  0.20592558     0.84100
O324        O  0.57314108  0.72099375  0.10146214    -0.68000
O325        O  0.35078737  0.68774329  0.15644245    -0.87300
C326        C  0.56046928  0.73777670  0.13001147     0.84900
C327        C  0.59329989  0.61585236  0.12004858     1.06500
H328        H  0.44626344  0.70898531  0.16250368     0.38300
O329        O  0.44397546  0.68015463  0.14943412    -1.10000
O330        O  0.39893764  0.64521962  0.08812929    -0.66600
Ni331      Ni  0.43754207  0.69704117  0.10347347     1.26300
O332        O  0.53175394  0.71658888  0.15020959    -0.66900
O333        O  0.38003543  0.73064607  0.11234882    -0.79200
C334        C  0.46916815  0.74102891  0.04381356     0.84300
O335        O  0.43551300  0.71865340  0.05754797    -0.66300
Ni336      Ni  0.39780318  0.64317720  0.17064593     1.27400
Ni337      Ni  0.50459051  0.65305604  0.14672359     1.26100
H338        H  0.48485232  0.62888383  0.09047448     0.38800
O339        O  0.30257723  0.51337922  0.49986192    -0.81100
O340        O  0.40549693  0.52646352  0.35234630    -0.65800
O341        O  0.36771794  0.52933055  0.44664041    -1.12400
C342        C  0.31951962  0.68189519  0.41193300     1.05800
O343        O  0.44815337  0.58719442  0.36779631    -0.79000
O344        O  0.43624694  0.63647721  0.42633408    -0.66600
Ni345      Ni  0.33791849  0.47568654  0.46765166     1.34900
C346        C  0.41756410  0.64135759  0.45541220     0.84500
O347        O  0.41425103  0.46276854  0.40194574    -0.79600
O348        O  0.36776437  0.42815860  0.43960296    -0.89800
C349        C  0.43573657  0.55808685  0.34476897     0.84100
O350        O  0.28808515  0.48147185  0.43620627    -0.68000
O351        O  0.35998843  0.68124010  0.39766305    -0.87300
C352        C  0.28680611  0.48905441  0.40418340     0.84900
C353        C  0.39848990  0.42604222  0.41619313     1.06500
H354        H  0.33625220  0.58522157  0.37782835     0.38300
O355        O  0.36051968  0.58521886  0.39530938    -1.10000
O356        O  0.37716782  0.62432906  0.46202016    -0.66600
Ni357      Ni  0.33116032  0.58704354  0.43773923     1.26300
O358        O  0.32340128  0.49894310  0.38598926    -0.66900
O359        O  0.30027956  0.64541362  0.42565582    -0.79200
C360        C  0.28466745  0.55468365  0.50013123     0.84300
O361        O  0.29595411  0.58666601  0.47894231    -0.66300
Ni362      Ni  0.40368008  0.63317103  0.38353100     1.27400
Ni363      Ni  0.38613044  0.52408238  0.39923562     1.26100
H364        H  0.39547141  0.53684693  0.46000910     0.38800
O365        O  0.00035999  0.79705971  0.05683728    -0.81100
O366        O  0.01708519  0.90310928  0.19516794    -0.65800
O367        O  0.01998750  0.87550777  0.09974630    -1.12400
C368        C  0.17082311  0.81975633  0.13211929     1.05800
O369        O  0.07898703  0.94636930  0.18191843    -0.79000
O370        O  0.14043809  0.93679822  0.12794927    -0.66600
Ni371      Ni  0.96714236  0.85168071  0.07515901     1.34900
C372        C  0.13884880  0.92608124  0.09646238     0.84500
O373        O  0.95134556  0.91215171  0.14598857    -0.79600
O374        O  0.92863954  0.90339155  0.09133640    -0.89800
C375        C  0.04736938  0.93476000  0.20333362     0.84100
O376        O  0.94401595  0.81183095  0.11030156    -0.68000
O377        O  0.16954201  0.85342776  0.15393379    -0.87300
C378        C  0.95992279  0.79878247  0.13924180     0.84900
C379        C  0.92220978  0.91887931  0.12159663     1.06500
H380        H  0.07517707  0.83335132  0.16378905     0.38300
O381        O  0.07578570  0.86124119  0.14941768    -1.10000
O382        O  0.11373857  0.89224580  0.08531062    -0.66600
Ni383      Ni  0.07801509  0.84078147  0.10405630     1.26300
O384        O  0.98946098  0.82335545  0.15683244    -0.66900
O385        O  0.13696357  0.80886848  0.11166127    -0.79200
C386        C  0.04315341  0.79040905  0.04821421     0.84300
O387        O  0.07595598  0.81717541  0.05880531    -0.66300
Ni388      Ni  0.12397010  0.89979351  0.16729333     1.27400
Ni389      Ni  0.01426034  0.88705499  0.14762186     1.26100
H390        H  0.02707514  0.90559403  0.08925158     0.38800
O391        O  0.22930760  0.02496584  0.49674095    -0.81100
O392        O  0.12569164  0.01601584  0.34836764    -0.65800
O393        O  0.16727012  0.00991659  0.44222198    -1.12400
C394        C  0.21907968  0.86004709  0.40502566     1.05800
O395        O  0.08646599  0.95399868  0.36504823    -0.79000
O396        O  0.10232261  0.89771308  0.41962783    -0.66600
Ni397      Ni  0.19841339  0.06325687  0.46225603     1.34900
C398        C  0.12243742  0.89200385  0.44833010     0.84500
O399        O  0.11787892  0.07677587  0.40014183    -0.79600
O400        O  0.17262007  0.11116777  0.43168950    -0.89800
C401        C  0.09551262  0.98377794  0.34173504     0.84100
O402        O  0.24855691  0.05281293  0.43216025    -0.68000
O403        O  0.17963678  0.86076888  0.38878823    -0.87300
C404        C  0.24744692  0.05131599  0.39970982     0.84900
C405        C  0.13741436  0.11362576  0.41146139     1.06500
H406        H  0.19901454  0.95811050  0.37275851     0.38300
O407        O  0.17495727  0.95643339  0.39010452    -1.10000
O408        O  0.16081014  0.91274214  0.45607695    -0.66600
Ni409      Ni  0.20480317  0.95342651  0.43261906     1.26300
O410        O  0.20921392  0.04472816  0.38197607    -0.66900
O411        O  0.23698569  0.89632070  0.41999667    -0.79200
C412        C  0.24885874  0.98445860  0.49650776     0.84300
O413        O  0.24026872  0.95347837  0.47398114    -0.66300
Ni414      Ni  0.13322518  0.90799948  0.37710182     1.27400
Ni415      Ni  0.14751814  0.01664216  0.39521150     1.26100
H416        H  0.14030070  0.00176122  0.45592933     0.38800
C417        C  0.04975964  0.95471721  0.23844646    -0.00400
C418        C  0.03283645  0.92727398  0.26547953    -0.12300
C419        C  0.04429198  0.93804359  0.29939268     0.01800
C420        C  0.07404824  0.97720721  0.30704110    -0.00500
C421        C  0.08674025  0.00755661  0.28014924    -0.12200
C422        C  0.07439703  0.99702975  0.24616035     0.01700
H423        H  0.01290633  0.89540572  0.26007898     0.14700
H424        H  0.10776461  0.03871956  0.28545752     0.14700
C425        C  0.08735956  0.03039513  0.21982778     0.36400
C426        C  0.02651045  0.90632920  0.32529474     0.36300
N427        N  0.09735929  0.05754342  0.19890165    -0.44000
N428        N  0.01223910  0.88071096  0.34589234    -0.44000
C429        C  0.29420081  0.72766946  0.41202872    -0.00400
C430        C  0.24503078  0.72781839  0.40872420    -0.12300
C431        C  0.21989667  0.77026852  0.40641592     0.01800
C432        C  0.24421561  0.81412617  0.40731367    -0.00500
C433        C  0.29334083  0.81391448  0.41147967    -0.12200
C434        C  0.31842337  0.77142207  0.41383019     0.01700
H435        H  0.22614513  0.69457218  0.40723768     0.14700
H436        H  0.31238123  0.84709874  0.41259102     0.14700
C437        C  0.36889480  0.77410455  0.41882160     0.36400
C438        C  0.16910536  0.76723238  0.40401950     0.36300
N439        N  0.40931241  0.77650870  0.42274508    -0.44000
N440        N  0.12844579  0.76454990  0.40208984    -0.44000
C441        C  0.30351098  0.74817740  0.13365909    -0.00400
C442        C  0.28441257  0.76350652  0.10226613    -0.12300
C443        C  0.24023799  0.78568462  0.10084872     0.01800
C444        C  0.21473592  0.79249041  0.13123288    -0.00500
C445        C  0.23408120  0.77780269  0.16251031    -0.12200
C446        C  0.27803793  0.75603177  0.16406904     0.01700
H447        H  0.30371611  0.75770141  0.07882650     0.14700
H448        H  0.21492555  0.78402970  0.18598185     0.14700
C449        C  0.29665655  0.74366699  0.19744209     0.36400
C450        C  0.22298921  0.80330125  0.06837912     0.36300
N451        N  0.31161349  0.73372782  0.22412667    -0.44000
N452        N  0.20925681  0.81773805  0.04243081    -0.44000
C453        C  0.45387527  0.56492731  0.30932258    -0.00400
C454        C  0.48493362  0.60298330  0.30305057    -0.12300
C455        C  0.49596444  0.61750042  0.26970469     0.01800
C456        C  0.47642465  0.59322918  0.24153991    -0.00500
C457        C  0.44915722  0.55251574  0.24787682    -0.12200
C458        C  0.43731486  0.53856958  0.28109163     0.01700
H459        H  0.49873519  0.62344724  0.32425795     0.14700
H460        H  0.43459429  0.53271176  0.22658755     0.14700
C461        C  0.40566564  0.49895321  0.28487050     0.36400
C462        C  0.52444428  0.65937609  0.26546606     0.36300
N463        N  0.38000659  0.46739257  0.28761688    -0.44000
N464        N  0.54720118  0.69303662  0.26231387    -0.44000
C465        C  0.38704865  0.09498574  0.39336148    -0.00400
C466        C  0.35163403  0.12426242  0.37947280    -0.12300
C467        C  0.30546402  0.10734402  0.37450655     0.01800
C468        C  0.29392325  0.06072959  0.38414764    -0.00500
C469        C  0.33089573  0.02997444  0.39370047    -0.12200
C470        C  0.37721335  0.04667650  0.39825045     0.01700
H471        H  0.35937725  0.16115637  0.37435095     0.14700
H472        H  0.32259251  0.99394252  0.40097860     0.14700
C473        C  0.41358728  0.01418479  0.40922264     0.36400
C474        C  0.26962179  0.13948115  0.36216373     0.36300
N475        N  0.44285117  0.98798358  0.41764358    -0.44000
N476        N  0.24117690  0.16515331  0.35166085    -0.44000
C477        C  0.45064648  0.28650177  0.39019299    -0.00400
C478        C  0.40232664  0.29429194  0.39567392    -0.12300
C479        C  0.38476391  0.33943392  0.40296491     0.01800
C480        C  0.41558098  0.37860840  0.40473338    -0.00500
C481        C  0.46318640  0.37174341  0.39580247    -0.12200
C482        C  0.48090208  0.32611919  0.38883328     0.01700
H483        H  0.37865199  0.26421212  0.39687958     0.14700
H484        H  0.48718540  0.40155625  0.39622735     0.14700
C485        C  0.53085346  0.32028007  0.38336712     0.36400
C486        C  0.33493642  0.34435098  0.40933214     0.36300
N487        N  0.57087703  0.31551778  0.37891828    -0.44000
N488        N  0.29510468  0.34872873  0.41464229    -0.44000
C489        C  0.87775294  0.94423027  0.12908615    -0.00400
C490        C  0.86723356  0.98605696  0.11144582    -0.12300
C491        C  0.82228066  0.00636609  0.11344687     0.01800
C492        C  0.78621955  0.98365078  0.13223855    -0.00500
C493        C  0.79811161  0.94448898  0.15262155    -0.12200
C494        C  0.84376217  0.92501073  0.15149433     0.01700
H495        H  0.89351847  0.00174162  0.09491396     0.14700
H496        H  0.77072398  0.92636632  0.16673868     0.14700
C497        C  0.85354130  0.88276020  0.17110508     0.36400
C498        C  0.81256737  0.04828254  0.09333681     0.36300
N499        N  0.86143570  0.84903350  0.18697572    -0.44000
N500        N  0.80507965  0.08194551  0.07728684    -0.44000
C501        C  0.60713304  0.88056475  0.12350861    -0.00400
C502        C  0.64017088  0.84365652  0.12403597    -0.12300
C503        C  0.62651615  0.79691681  0.13030692     0.01800
C504        C  0.57876873  0.78597916  0.13710432    -0.00500
C505        C  0.54626410  0.82342417  0.13931080    -0.12200
C506        C  0.55990084  0.87037779  0.13218379     0.01700
H507        H  0.67666745  0.85108531  0.11783035     0.14700
H508        H  0.50924211  0.81548028  0.14306865     0.14700
C509        C  0.52381592  0.90624492  0.12998628     0.36400
C510        C  0.66168909  0.76043752  0.12640090     0.36300
N511        N  0.49458771  0.93469612  0.12781962    -0.44000
N512        N  0.69022713  0.73172544  0.12261506    -0.44000
C513        C  0.57929669  0.06787651  0.22035302    -0.00400
C514        C  0.54284762  0.10035421  0.22749431    -0.12300
C515        C  0.53234311  0.11366900  0.26114137     0.01800
C516        C  0.55933004  0.09515200  0.28856346    -0.00500
C517        C  0.59203744  0.05891338  0.28155772    -0.12200
C518        C  0.60188195  0.04493829  0.24808104     0.01700
H519        H  0.52357244  0.11698583  0.20663040     0.14700
H520        H  0.61173332  0.04249840  0.30230549     0.14700
C521        C  0.63696698  0.00859646  0.24321162     0.36400
C522        C  0.49483905  0.14735053  0.26643522     0.36300
N523        N  0.66491359  0.97930796  0.23929658    -0.44000
N524        N  0.46444245  0.17398487  0.27065264    -0.44000
C525        C  0.09007381  0.25536547  0.38630727    -0.00400
C526        C  0.05797165  0.21768653  0.38447603    -0.12300
C527        C  0.07261554  0.17085954  0.39110275     0.01800
C528        C  0.12024416  0.16125136  0.40012063    -0.00500
C529        C  0.15276052  0.19862004  0.39888215    -0.12200
C530        C  0.13839623  0.24481421  0.39118510     0.01700
H531        H  0.02078275  0.22522628  0.38081591     0.14700
H532        H  0.18957572  0.19202977  0.40483452     0.14700
C533        C  0.17375764  0.28148154  0.39001522     0.36400
C534        C  0.03722419  0.13425210  0.39136753     0.36300
N535        N  0.20201024  0.31089644  0.38887952    -0.44000
N536        N  0.00878258  0.10494242  0.39161333    -0.44000
C537        C  0.14534078  0.45182261  0.39558904    -0.00400
C538        C  0.17761417  0.42947148  0.37370338    -0.12300
C539        C  0.22415828  0.44628114  0.37068802     0.01800
C540        C  0.23856189  0.48589480  0.38972994    -0.00500
C541        C  0.20398933  0.51222956  0.40697783    -0.12200
C542        C  0.15782134  0.49538072  0.41027482     0.01700
H543        H  0.16765896  0.39682001  0.36116351     0.14700
H544        H  0.21458143  0.54322587  0.42129912     0.14700
C545        C  0.12437390  0.52244472  0.42980816     0.36400
C546        C  0.25751598  0.42031530  0.35039096     0.36300
N547        N  0.09744889  0.54450270  0.44509923    -0.44000
N548        N  0.28429566  0.39991110  0.33383566    -0.44000
C549        C  0.72635845  0.24519483  0.41155880    -0.00400
C550        C  0.76714389  0.22254060  0.39947696    -0.12300
C551        C  0.81142052  0.24354524  0.40231622     0.01800
C552        C  0.81572454  0.28800000  0.41788679    -0.00500
C553        C  0.77535800  0.31042281  0.43082180    -0.12200
C554        C  0.73073458  0.28938961  0.42782992     0.01700
H555        H  0.76432405  0.18874683  0.38664059     0.14700
H556        H  0.77847799  0.34545414  0.44181571     0.14700
C557        C  0.68993049  0.31555672  0.43894146     0.36400
C558        C  0.85085788  0.22092117  0.38590721     0.36300
N559        N  0.65719860  0.33669475  0.44760975    -0.44000
N560        N  0.88191427  0.20274247  0.37214031    -0.44000
C561        C  0.90950296  0.65880146  0.13487543    -0.00400
C562        C  0.95704302  0.66615286  0.14404993    -0.12300
C563        C  0.97395218  0.71202032  0.15150472     0.03400
C564        C  0.94296500  0.75123058  0.15000838    -0.00500
C565        C  0.89453733  0.74237318  0.14537138    -0.12200
C566        C  0.87778191  0.69699985  0.13780839     0.01700
H567        H  0.98153645  0.63673610  0.14319634     0.14700
H568        H  0.87013890  0.77188775  0.14420999     0.14700
C569        C  0.82782173  0.69075040  0.13207693     0.36400
C570        C  0.02378961  0.71851546  0.15753289     0.36300
N571        N  0.78781431  0.68545802  0.12756809    -0.44000
N572        N  0.06374194  0.72351908  0.16257701    -0.44000
C573        C  0.72983149  0.55389742  0.13819410    -0.00400
C574        C  0.71565199  0.59316124  0.15721859    -0.12300
C575        C  0.66973796  0.61138936  0.15362831     0.01800
C576        C  0.63834422  0.59198973  0.12902454    -0.00500
C577        C  0.65102448  0.55012792  0.11255947    -0.12200
C578        C  0.69564785  0.53005241  0.11813269     0.01700
H579        H  0.74142370  0.61188828  0.17266405     0.14700
H580        H  0.62637872  0.53349384  0.09501752     0.14700
C581        C  0.70683317  0.48611746  0.10142186     0.36400
C582        C  0.65678851  0.65189032  0.17385503     0.36300
N583        N  0.71526208  0.45035136  0.08861365    -0.44000
N584        N  0.64613094  0.68403514  0.19030420    -0.44000
C585        C  0.78743499  0.31107594  0.10247976    -0.00400
C586        C  0.73831113  0.31453622  0.09888957    -0.12300
C587        C  0.71008358  0.27394337  0.09869439     0.01800
C588        C  0.73125551  0.22875900  0.10076341    -0.00500
C589        C  0.78050349  0.22520371  0.10228923    -0.12200
C590        C  0.80863122  0.26578070  0.10384761     0.01700
H591        H  0.72174616  0.34908584  0.09785079     0.14700
H592        H  0.79693468  0.19060583  0.10395885     0.14700
C593        C  0.85902974  0.25976075  0.10735615     0.36400
C594        C  0.65953181  0.27975160  0.09671394     0.36300
N595        N  0.89935860  0.25472872  0.11037624    -0.44000
N596        N  0.61906977  0.28486120  0.09529169    -0.44000
C597        C  0.94228741  0.46675168  0.22492939    -0.00400
C598        C  0.92096971  0.49143640  0.25169938    -0.12300
C599        C  0.93227677  0.48146636  0.28588549     0.01800
C600        C  0.96494906  0.44493720  0.29413521    -0.00500
C601        C  0.98920072  0.42311493  0.26737708    -0.12200
C602        C  0.97880560  0.43404539  0.23314276     0.01700
H603        H  0.89412357  0.51772053  0.24604085     0.14700
H604        H  0.01540055  0.39620708  0.27309634     0.14700
C605        C  0.00630695  0.41067842  0.20726293     0.36400
C606        C  0.90921931  0.50939274  0.31171472     0.36300
N607        N  0.02867987  0.39209104  0.18665580    -0.44000
N608        N  0.89086764  0.53192787  0.33236228    -0.44000
C609        C  0.96614854  0.28010199  0.01309196    -0.00400
C610        C  0.00042696  0.31244912  0.02518910    -0.12300
C611        C  0.98773521  0.35101003  0.04607274     0.01800
C612        C  0.93995490  0.35864911  0.05384911    -0.00500
C613        C  0.90607904  0.32715699  0.04139730    -0.12200
C614        C  0.91838325  0.28773666  0.02233068     0.01700
H615        H  0.03711726  0.30767748  0.01843714     0.14700
H616        H  0.86931845  0.33226477  0.04797518     0.14700
C617        C  0.88050663  0.25549307  0.01395346     0.36400
C618        C  0.02374482  0.38281293  0.05832423     0.36300
N619        N  0.84986633  0.22985393  0.00774020    -0.44000
N620        N  0.05267130  0.40841016  0.06802256    -0.44000
C621        C  0.84091508  0.09642330  0.95407976    -0.00400
C622        C  0.80810851  0.13023437  0.96481195    -0.12300
C623        C  0.76825821  0.11782192  0.98348363     0.01800
C624        C  0.76096432  0.07005460  0.99322173    -0.00500
C625        C  0.79320366  0.03569757  0.98126863    -0.12200
C626        C  0.83260397  0.04850229  0.96148204     0.01700
H627        H  0.81346577  0.16706046  0.95825693     0.14700
H628        H  0.78860075  0.99887698  0.98823365     0.14700
C629        C  0.86506684  0.01245102  0.95050766     0.36400
C630        C  0.73601220  0.15551257  0.99209663     0.36300
N631        N  0.89120855  0.98357368  0.94174865    -0.44000
N632        N  0.71043274  0.18597133  0.99876919    -0.44000
C633        C  0.93827270  0.07836723  0.72242690    -0.00400
C634        C  0.96984364  0.11587657  0.72917638    -0.12300
C635        C  0.98360677  0.12757549  0.76248898     0.01800
C636        C  0.96663772  0.10080418  0.79020957    -0.00500
C637        C  0.93802152  0.06111965  0.78335054    -0.12200
C638        C  0.92353753  0.04989170  0.75003390     0.01700
H639        H  0.98229976  0.13802010  0.70845006     0.14700
H640        H  0.92509217  0.03972232  0.80434140     0.14700
C641        C  0.89223570  0.01015132  0.74544799     0.36400
C642        C  0.01187875  0.16951108  0.76732363     0.36300
N643        N  0.86707774  0.97829756  0.74201167    -0.44000
N644        N  0.03422601  0.20334870  0.77104206    -0.44000
C645        C  0.99564862  0.24684996  0.50732964    -0.00400
C646        C  0.01055857  0.24538849  0.54148582    -0.12300
C647        C  0.99644952  0.20824701  0.56306241     0.01800
C648        C  0.96576158  0.17241629  0.55040676    -0.00500
C649        C  0.95706910  0.17085840  0.51499641    -0.12200
C650        C  0.97175844  0.20759019  0.49358220     0.01700
H651        H  0.03082045  0.27461310  0.55181065     0.14700
H652        H  0.93570534  0.14274797  0.50423408     0.14700
C653        C  0.96081185  0.20487728  0.45761613     0.36400
C654        C  0.01195210  0.20968229  0.59829429     0.36300
N655        N  0.95246952  0.20236581  0.42872047    -0.44000
N656        N  0.02457744  0.21083335  0.62648328    -0.44000
C657        C  0.76820435  0.05396745  0.49206413    -0.00400
C658        C  0.72152008  0.03872999  0.49758739    -0.12300
C659        C  0.68405094  0.05413961  0.47629620     0.01800
C660        C  0.69305005  0.08428051  0.44831906    -0.00500
C661        C  0.74016590  0.09646951  0.44140795    -0.12200
C662        C  0.77735414  0.08232417  0.46307411     0.01700
H663        H  0.71389479  0.01669267  0.51959555     0.14700
H664        H  0.74776093  0.11935047  0.41988856     0.14700
C665        C  0.82457020  0.09797302  0.45522770     0.36400
C666        C  0.63679336  0.03835026  0.48336908     0.36300
N667        N  0.86238784  0.11051470  0.44897206    -0.44000
N668        N  0.59887692  0.02539841  0.48878383    -0.44000
C669        C  0.74942293  0.47356765  0.00308225    -0.00400
C670        C  0.73039641  0.42839363  0.00836041    -0.12300
C671        C  0.69188044  0.41183245  0.98949851     0.01800
C672        C  0.67087363  0.44045301  0.96355441    -0.00500
C673        C  0.68987845  0.48592747  0.95809239    -0.12200
C674        C  0.72837658  0.50277778  0.97775495     0.01700
H675        H  0.74558791  0.40543415  0.02782158     0.14700
H676        H  0.67524057  0.50808866  0.93797725     0.14700
C677        C  0.74695536  0.54906527  0.97018796     0.36400
C678        C  0.67710342  0.36390807  0.99668530     0.36300
N679        N  0.76189167  0.58612422  0.96389665    -0.44000
N680        N  0.66606671  0.32543648  0.00283152    -0.44000
C681        C  0.53712538  0.24726148  0.00415154    -0.00400
C682        C  0.51974116  0.24672145  0.03753094    -0.12300
C683        C  0.53318420  0.21085043  0.06061063     0.01800
C684        C  0.56475047  0.17465591  0.05010192    -0.00500
C685        C  0.57693529  0.17263818  0.01536180    -0.12200
C686        C  0.56384535  0.20857596  0.99267093     0.01700
H687        H  0.49793925  0.27578286  0.04616298     0.14700
H688        H  0.59963442  0.14462392  0.00616962     0.14700
C689        C  0.57912663  0.20530619  0.95773253     0.36400
C690        C  0.51599809  0.21403247  0.09515877     0.36300
N691        N  0.59116685  0.20210217  0.92969658    -0.44000
N692        N  0.50210541  0.21683716  0.12281274    -0.44000
C693        C  0.80482103  0.24680671  0.91054992    -0.00400
C694        C  0.76413603  0.22248123  0.89957686    -0.12300
C695        C  0.71989525  0.24384401  0.89958768     0.01800
C696        C  0.71500514  0.28999262  0.91210587    -0.00500
C697        C  0.75499837  0.31398673  0.92457201    -0.12200
C698        C  0.79981062  0.29283396  0.92395645     0.01700
H699        H  0.76696207  0.18687342  0.88959331     0.14700
H700        H  0.75139902  0.34998853  0.93367644     0.14700
C701        C  0.83992813  0.32011179  0.93534364     0.36400
C702        C  0.68153106  0.21943423  0.88292323     0.36300
N703        N  0.87207835  0.34203809  0.94442493    -0.44000
N704        N  0.65185396  0.19934232  0.86868820    -0.44000
C705        C  0.79237488  0.22706503  0.58604044    -0.00400
C706        C  0.74420230  0.22489755  0.59308468    -0.12300
C707        C  0.71800050  0.26627044  0.59744451     0.01800
C708        C  0.74027996  0.31099266  0.59443075    -0.00500
C709        C  0.78765954  0.31280909  0.58428329    -0.12200
C710        C  0.81380021  0.27128840  0.58027132     0.01700
H711        H  0.72766702  0.19081641  0.59733757     0.14700
H712        H  0.80492560  0.34668050  0.58083344     0.14700
C713        C  0.86274884  0.27482494  0.57074140     0.36400
C714        C  0.66853926  0.26133845  0.60526873     0.36300
N715        N  0.90187454  0.27778759  0.56287850    -0.44000
N716        N  0.62890610  0.25720583  0.61145055    -0.44000
C717        C  0.58902706  0.46851326  0.72197081    -0.00400
C718        C  0.55048731  0.43796563  0.72727117    -0.12300
C719        C  0.53610199  0.42504900  0.76019469     0.01800
C720        C  0.56044681  0.44293140  0.78900195    -0.00500
C721        C  0.59586419  0.47713245  0.78363881    -0.12200
C722        C  0.61027843  0.48998889  0.75073970     0.01700
H723        H  0.53253354  0.42230467  0.70551991     0.14700
H724        H  0.61417650  0.49260561  0.80530045     0.14700
C725        C  0.64858977  0.52333838  0.74773767     0.36400
C726        C  0.49760016  0.39197169  0.76316621     0.36300
N727        N  0.67925925  0.55013221  0.74557372    -0.44000
N728        N  0.46664765  0.36548509  0.76513996    -0.44000
C729        C  0.78666676  0.48203430  0.50799954    -0.00400
C730        C  0.82117523  0.45239134  0.52242072    -0.12300
C731        C  0.85984716  0.43689011  0.50334540     0.01800
C732        C  0.86366072  0.44953910  0.46833123    -0.00500
C733        C  0.83042766  0.48199441  0.45476169    -0.12200
C734        C  0.79249624  0.49852077  0.47435509     0.01700
H735        H  0.81758730  0.44086260  0.54876594     0.14700
H736        H  0.83251113  0.49279074  0.42820532     0.14700
C737        C  0.75857324  0.53023988  0.45886764     0.36400
C738        C  0.89458655  0.40786738  0.52062540     0.36300
N739        N  0.73138395  0.55579095  0.44656027    -0.44000
N740        N  0.92246204  0.38501039  0.53478666    -0.44000
C741        C  0.56842113  0.27164136  0.51290255    -0.00400
C742        C  0.53337259  0.30305012  0.52491673    -0.12300
C743        C  0.54519623  0.34374088  0.54401973     0.01800
C744        C  0.59294859  0.35476798  0.55027576    -0.00500
C745        C  0.62761789  0.32418402  0.53767108    -0.12200
C746        C  0.61618627  0.28259542  0.52036195     0.01700
H747        H  0.49654310  0.29598992  0.51936100     0.14700
H748        H  0.66447497  0.33176694  0.54271941     0.14700
C749        C  0.65491705  0.25182706  0.51155441     0.36400
C750        C  0.50799376  0.37450064  0.55548736     0.36300
N751        N  0.68626410  0.22736786  0.50493394    -0.44000
N752        N  0.47785056  0.39910667  0.56430637    -0.44000
C753        C  0.23352084  0.05448337  0.89434180    -0.00400
C754        C  0.19839606  0.02961439  0.91226318    -0.12300
C755        C  0.15299551  0.04829926  0.91598267     0.01800
C756        C  0.14132039  0.09161254  0.90033257    -0.00500
C757        C  0.17418569  0.11298341  0.87832865    -0.12200
C758        C  0.22042044  0.09517639  0.87568249     0.01700
H759        H  0.20806757  0.99819566  0.92672504     0.14700
H760        H  0.16493441  0.14570181  0.86541018     0.14700
C761        C  0.25504037  0.12188640  0.85689881     0.36400
C762        C  0.11972555  0.02367524  0.93735336     0.36300
N763        N  0.28299716  0.14317509  0.84193296    -0.44000
N764        N  0.09296129  0.00398079  0.95443169    -0.44000
C765        C  0.40754603  0.15636115  0.89989243    -0.00400
C766        C  0.45205917  0.16401422  0.88490585    -0.12300
C767        C  0.46775881  0.21020022  0.87689063     0.01800
C768        C  0.43867109  0.24956425  0.88373960    -0.00500
C769        C  0.39214530  0.24076868  0.89431953    -0.12200
C770        C  0.37666903  0.19543304  0.90275058     0.01700
H771        H  0.47559572  0.13430144  0.88111991     0.14700
H772        H  0.36866530  0.27023879  0.89914223     0.14700
C773        C  0.32926223  0.19091415  0.91569935     0.36400
C774        C  0.51435876  0.21640357  0.86323057     0.36300
N775        N  0.29146994  0.18750051  0.92638068    -0.44000
N776        N  0.55146101  0.22146604  0.85171995    -0.44000
C777        C  0.24726357  0.97415821  0.02758164    -0.00400
C778        C  0.20480035  0.95545523  0.01470754    -0.12300
C779        C  0.16719537  0.94403173  0.03617431     0.01800
C780        C  0.17165986  0.95000817  0.07199090    -0.00500
C781        C  0.21319843  0.97153956  0.08467053    -0.12200
C782        C  0.25059180  0.98393931  0.06282163     0.01700
H783        H  0.20089661  0.94961886  0.98742883     0.14700
H784        H  0.21769329  0.97645794  0.11196489     0.14700
C785        C  0.29290151  0.00398252  0.07742572     0.36400
C786        C  0.12470402  0.92578285  0.02044785     0.36300
N787        N  0.32682756  0.02010459  0.08914366    -0.44000
N788        N  0.09072276  0.91120642  0.00776140    -0.44000
C789        C  0.43128083  0.85659035  0.97659983    -0.00400
C790        C  0.41691186  0.85648781  0.01086762    -0.12300
C791        C  0.42963760  0.81974468  0.03316636     0.01800
C792        C  0.45762228  0.78184961  0.02146527    -0.00500
C793        C  0.47437089  0.78299673  0.98791099    -0.12200
C794        C  0.46120397  0.81948387  0.96534064     0.01700
H795        H  0.39444760  0.88464621  0.02015008     0.14700
H796        H  0.49620565  0.75419303  0.97887263     0.14700
C797        C  0.47646412  0.81570214  0.93031856     0.36400
C798        C  0.41424129  0.82271918  0.06816164     0.36300
N799        N  0.48855579  0.81244606  0.90223841    -0.44000
N800        N  0.40181228  0.82650266  0.09611288    -0.44000
C801        C  0.65418572  0.92940039  0.62563467    -0.00400
C802        C  0.69046180  0.89601668  0.62309339    -0.12300
C803        C  0.73778738  0.90950746  0.62529772     0.01800
C804        C  0.74989314  0.95769789  0.62967428    -0.00500
C805        C  0.71348416  0.99061530  0.63512521    -0.12200
C806        C  0.66575229  0.97670764  0.63325005     0.01700
H807        H  0.68173761  0.85928023  0.61822407     0.14700
H808        H  0.72212034  0.02771232  0.63811884     0.14700
C809        C  0.62937605  0.01193300  0.63681946     0.36400
C810        C  0.77330938  0.87337272  0.62095172     0.36300
N811        N  0.60012440  0.04015595  0.63967489    -0.44000
N812        N  0.80155002  0.84431926  0.61723417    -0.44000
C813        C  0.56986607  0.74469329  0.64400866    -0.00400
C814        C  0.54085306  0.71312690  0.62571743    -0.12300
C815        C  0.55725540  0.66830087  0.61602342     0.01800
C816        C  0.60271211  0.65340800  0.62596282    -0.00500
C817        C  0.63007427  0.68309360  0.64701679    -0.12200
C818        C  0.61440870  0.72878321  0.65547385     0.01700
H819        H  0.50722326  0.72549256  0.61569436     0.14700
H820        H  0.66507571  0.67179215  0.65492362     0.14700
C821        C  0.64609698  0.76033405  0.67327097     0.36400
C822        C  0.52810470  0.63944864  0.59407554     0.36300
N823        N  0.67141267  0.78580643  0.68743982    -0.44000
N824        N  0.50489456  0.61640701  0.57629568    -0.44000
C825        C  0.44700633  0.97050811  0.80707196    -0.00400
C826        C  0.47295493  0.92897242  0.80030813    -0.12300
C827        C  0.48774562  0.91750904  0.76733695     0.01800
C828        C  0.47711346  0.94803819  0.73979727    -0.00500
C829        C  0.45414716  0.99121653  0.74674104    -0.12200
C830        C  0.43936574  0.00278365  0.77994797     0.01700
H831        H  0.47995495  0.90368141  0.82061806     0.14700
H832        H  0.44621518  0.01538583  0.72588732     0.14700
C833        C  0.41595313  0.04748207  0.78519866     0.36400
C834        C  0.50997986  0.87211955  0.76227364     0.36300
N835        N  0.39741479  0.08341591  0.78952140    -0.44000
N836        N  0.52755578  0.83566536  0.75813564    -0.44000
C837        C  0.28596148  0.97340611  0.52231683    -0.00400
C838        C  0.28102916  0.98739394  0.55649427    -0.12300
C839        C  0.31534596  0.97532010  0.58125228     0.01800
C840        C  0.35611950  0.94947215  0.57168807    -0.00500
C841        C  0.36228103  0.93894872  0.53695583    -0.12200
C842        C  0.32793510  0.95022652  0.51254250     0.01700
H843        H  0.24949828  0.00620956  0.56411930     0.14700
H844        H  0.39348300  0.91995904  0.52883083     0.14700
C845        C  0.33725795  0.93767412  0.47746952     0.36400
C846        C  0.30622761  0.98775100  0.61633344     0.36300
N847        N  0.34500668  0.92731003  0.44949553    -0.44000
N848        N  0.29875707  0.99779881  0.64442415    -0.44000
C849        C  0.46627349  0.74476935  0.52796425    -0.00400
C850        C  0.49071116  0.73893261  0.49726383    -0.12300
C851        C  0.47831024  0.70313928  0.47415091     0.01800
C852        C  0.44060724  0.67190471  0.48175961    -0.00500
C853        C  0.41912750  0.67554893  0.51396434    -0.12200
C854        C  0.43148574  0.71138650  0.53688520     0.01700
H855        H  0.51841349  0.76368393  0.49065355     0.14700
H856        H  0.39115950  0.65131177  0.52094667     0.14700
C857        C  0.40864569  0.71189981  0.56971338     0.36400
C858        C  0.50358053  0.70130658  0.44229388     0.36300
N859        N  0.39015044  0.71079948  0.59595507    -0.44000
N860        N  0.52389602  0.70006141  0.41677321    -0.44000
C861        C  0.08352359  0.28594951  0.88794160    -0.00400
C862        C  0.05211795  0.32430625  0.88659044    -0.12300
C863        C  0.06803498  0.37076662  0.89220012     0.01800
C864        C  0.11657487  0.37949545  0.89839635    -0.00500
C865        C  0.14830257  0.34150091  0.89625837    -0.12200
C866        C  0.13229453  0.29519815  0.89155434     0.01700
H867        H  0.01451857  0.31752987  0.88491140     0.14700
H868        H  0.18571440  0.34757432  0.90024901     0.14700
C869        C  0.16642778  0.25735865  0.89373590     0.36400
C870        C  0.03313168  0.40764682  0.89534115     0.36300
N871        N  0.19416515  0.22747044  0.89596150    -0.44000
N872        N  0.00509745  0.43710372  0.89817289    -0.44000
C873        C  0.28932351  0.48578656  0.88362190    -0.00400
C874        C  0.29767583  0.44045784  0.87060202    -0.12300
C875        C  0.34289400  0.42013053  0.87255904     0.01800
C876        C  0.38028714  0.44498355  0.88845817    -0.00500
C877        C  0.37345943  0.49250720  0.89689040    -0.12200
C878        C  0.32859493  0.51325798  0.89384751     0.01700
H879        H  0.26802077  0.41889134  0.86253635     0.14700
H880        H  0.40249737  0.51264203  0.90763650     0.14700
C881        C  0.32284695  0.56180827  0.90404296     0.36400
C882        C  0.34904441  0.37249442  0.86036750     0.36300
N883        N  0.31892782  0.60101604  0.91176442    -0.44000
N884        N  0.35356450  0.33456351  0.84994150    -0.44000
C885        C  0.27970586  0.81470381  0.91783233    -0.00400
C886        C  0.30170700  0.77617551  0.93400793    -0.12300
C887        C  0.27840022  0.73289591  0.93734023     0.01800
C888        C  0.23303465  0.72727258  0.92253765    -0.00500
C889        C  0.21054946  0.76714672  0.90788609    -0.12200
C890        C  0.23322835  0.81062850  0.90580030     0.01700
H891        H  0.33706032  0.78019433  0.94444118     0.14700
H892        H  0.17515097  0.76454988  0.89739769     0.14700
C893        C  0.20877742  0.84989650  0.88989238     0.36400
C894        C  0.30156918  0.69605799  0.95686386     0.36300
N895        N  0.18903502  0.88129524  0.87722403    -0.44000
N896        N  0.32012877  0.66712375  0.97309378    -0.44000
C897        C  0.08957381  0.67332733  0.98523492    -0.00400
C898        C  0.04281372  0.68997593  0.98216869    -0.12300
C899        C  0.02607903  0.72717894  0.00277108     0.01800
C900        C  0.05649852  0.74890834  0.02686659    -0.00500
C901        C  0.10231130  0.73097650  0.03082016    -0.12200
C902        C  0.11915382  0.69431693  0.01047900     0.01700
H903        H  0.01970363  0.67502135  0.96284115     0.14700
H904        H  0.12596171  0.74659793  0.04956071     0.14700
C905        C  0.16849769  0.68258196  0.01466656     0.36400
C906        C  0.97853028  0.74400054  0.99734389     0.36300
N907        N  0.20818918  0.67428262  0.01832902    -0.44000
N908        N  0.94046130  0.75773925  0.99312470    -0.44000
C909        C  0.27424594  0.55589473  0.03211401    -0.00400
C910        C  0.25943908  0.57723645  0.06238129    -0.12300
C911        C  0.29249273  0.59149634  0.08715678     0.01800
C912        C  0.34141029  0.58618055  0.08107365    -0.00500
C913        C  0.35599492  0.56331131  0.05130941    -0.12200
C914        C  0.32280123  0.54704835  0.02736999     0.01700
H915        H  0.22217380  0.58375698  0.06629333     0.14700
H916        H  0.39336022  0.55906861  0.04643330     0.14700
C917        C  0.33953684  0.52213996  0.99776709     0.36400
C918        C  0.27527752  0.61405165  0.11766359     0.36300
N919        N  0.35328921  0.50135803  0.97449151    -0.44000
N920        N  0.26103071  0.63173178  0.14213034    -0.44000
C921        C  0.98266768  0.80414536  0.64409081    -0.00400
C922        C  0.94142666  0.81862962  0.66068790    -0.12300
C923        C  0.92242809  0.86403396  0.65459261     0.01800
C924        C  0.94326307  0.89419349  0.63000409    -0.00500
C925        C  0.98740994  0.88213282  0.61708071    -0.12200
C926        C  0.00806930  0.83846267  0.62514777     0.01700
H927        H  0.92177146  0.79327034  0.67575188     0.14700
H928        H  0.00504814  0.90616540  0.59970450     0.14700
C929        C  0.05352857  0.82784479  0.61067882     0.36400
C930        C  0.88008841  0.87779819  0.67218630     0.36300
N931        N  0.09024123  0.82053499  0.59913918    -0.44000
N932        N  0.84652974  0.88922657  0.68663907    -0.44000
C933        C  0.78684476  0.58073281  0.63904695    -0.00400
C934        C  0.79358456  0.62983096  0.64124721    -0.12300
C935        C  0.83853502  0.64973849  0.63815091     0.01800
C936        C  0.87804006  0.62026355  0.63336037    -0.00500
C937        C  0.87207208  0.57097003  0.63511841    -0.12200
C938        C  0.82680847  0.55101199  0.63754861     0.01700
H939        H  0.76306403  0.65295599  0.64222074     0.14700
H940        H  0.90240571  0.54803189  0.63205457     0.14700
C941        C  0.82200624  0.50034459  0.63477004     0.36400
C942        C  0.84295233  0.70057216  0.63885469     0.36300
N943        N  0.81849076  0.45971264  0.63249698    -0.44000
N944        N  0.84632268  0.74132173  0.63948993    -0.44000
C945        C  0.22265870  0.74716749  0.63637480    -0.00400
C946        C  0.24390819  0.75814067  0.60511603    -0.12300
C947        C  0.28729171  0.78151699  0.60421418     0.01800
C948        C  0.30964320  0.79460725  0.63510936    -0.00500
C949        C  0.28792780  0.78429886  0.66633686    -0.12200
C950        C  0.24490136  0.76044298  0.66723110     0.01700
H951        H  0.22684026  0.74790490  0.58141171     0.14700
H952        H  0.30471636  0.79486657  0.69011765     0.14700
C953        C  0.22351282  0.75151032  0.70002738     0.36400
C954        C  0.30708146  0.79334669  0.57136262     0.36300
N955        N  0.20629361  0.74445369  0.72627546    -0.44000
N956        N  0.32291613  0.80288794  0.54505297    -0.44000
C957        C  0.07268204  0.56675088  0.80932565    -0.00400
C958        C  0.04084473  0.60375773  0.80168165    -0.12300
C959        C  0.02903946  0.61585528  0.76776080     0.01800
C960        C  0.05008805  0.59141416  0.74033372    -0.00500
C961        C  0.07798587  0.55150013  0.74806822    -0.12200
C962        C  0.08887412  0.53868195  0.78191355     0.01700
H963        H  0.02647776  0.62482375  0.82222602     0.14700
H964        H  0.09297798  0.53097187  0.72746224     0.14700
C965        C  0.11786935  0.49729072  0.78734723     0.36400
C966        C  0.99698266  0.65484392  0.76211189     0.36300
N967        N  0.14086817  0.46393944  0.79165599    -0.44000
N968        N  0.97098629  0.68587045  0.75765399    -0.44000
C969        C  0.17543488  0.58974330  0.57318618    -0.00400
C970        C  0.17178369  0.60363307  0.53870627    -0.12300
C971        C  0.20685984  0.59293982  0.51509239     0.01800
C972        C  0.24663016  0.56575281  0.52507369    -0.00500
C973        C  0.24837291  0.54782032  0.55865049    -0.12200
C974        C  0.21369802  0.56000731  0.58279682     0.01700
H975        H  0.14235655  0.62540296  0.53027963     0.14700
H976        H  0.27793510  0.52586005  0.56646904     0.14700
C977        C  0.21983112  0.54333519  0.61744002     0.36400
C978        C  0.20071185  0.61114010  0.48078752     0.36300
N979        N  0.22489903  0.52992411  0.64520955    -0.44000
N980        N  0.19513378  0.62649576  0.45360373    -0.44000
C981        C  0.07603943  0.77586912  0.51194937    -0.00400
C982        C  0.04258090  0.80758121  0.49796928    -0.12300
C983        C  0.05645592  0.84610379  0.47750520     0.01800
C984        C  0.10475153  0.85461995  0.47171298    -0.00500
C985        C  0.13795463  0.82223377  0.48476117    -0.12200
C986        C  0.12413307  0.78267630  0.50379967     0.01700
H987        H  0.00552992  0.80318548  0.50381375     0.14700
H988        H  0.17500138  0.82674228  0.47879120     0.14700
C989        C  0.16001806  0.74861518  0.51316507     0.36400
C990        C  0.02065800  0.87704303  0.46352356     0.36300
N991        N  0.18882411  0.72115099  0.52014039    -0.44000
N992        N  0.99199159  0.90176958  0.45214354    -0.44000
loop_ 
_geom_bond_atom_site_label_1 
_geom_bond_atom_site_label_2 
_geom_bond_distance 
_geom_bond_site_symmetry_2 
_ccdc_geom_bond_type 
O1           Ni7   1.926       .  S
O1           C22   1.275       .  A
O2          Ni25   1.895       .  S
O2           C11   1.265       .  A
O3           Ni7   1.895       .  S
O3          Ni25   1.866       .  S
O3          Ni19   1.877       .  S
O3           H26   0.967       .  S
C4           O21   1.259       .  A
C4           O13   1.271       .  A
C4          C936   1.483       .  S
O5          Ni24   1.937   1_455  S
O5           C11   1.273       .  A
O6          Ni24   1.868       .  S
O6            C8   1.267       .  A
Ni7          O10   1.922       .  S
Ni7          O12   1.926       .  S
C8           O18   1.295       .  A
C8          C921   1.484       .  S
O9          Ni25   1.913       .  S
O9           C15   1.281       .  A
O10          C15   1.281       .  A
C11         C981   1.495       .  S
O12          C14   1.271       .  A
O13         Ni24   1.938       .  S
C14          O20   1.269       .  A
C14         C969   1.501       .  S
C15         C945   1.467       .  S
H16          O17   0.965       .  S
O17         Ni25   1.950       .  S
O17         Ni19   1.934       .  S
O17         Ni24   1.926   1_455  S
O18         Ni19   1.992   1_655  S
Ni19         O23   1.924       .  S
Ni19         O21   1.900   1_455  S
O20         Ni25   1.911       .  S
C22          O23   1.276       .  A
C22         C960   1.498       .  S
O27         Ni33   1.931       .  S
O27          C48   1.275       .  A
O28         Ni51   1.911       .  S
O28          C37   1.268   1_556  A
O29         Ni33   1.897       .  S
O29         Ni51   1.876       .  S
O29         Ni45   1.877       .  S
O29          H52   0.967       .  S
C30          O47   1.261       .  A
C30          O39   1.270       .  A
C30         C864   1.492       .  S
O31         Ni50   1.923       .  S
O31          C37   1.269   1_556  A
O32         Ni50   1.880       .  S
O32          C34   1.268       .  A
Ni33         O36   1.914       .  S
Ni33         O38   1.922       .  S
C34          O44   1.292       .  A
C34         C873   1.480       .  S
O35         Ni51   1.916       .  S
O35          C41   1.281       .  A
O36          C41   1.280       .  A
C37         C909   1.477       .  S
O38          C40   1.272       .  A
O39         Ni50   1.938       .  S
C40          O46   1.271       .  A
C40         C897   1.500       .  S
C41         C888   1.484       .  S
H42          O43   0.966       .  S
O43         Ni51   1.948       .  S
O43         Ni45   1.929       .  S
O43         Ni50   1.920       .  S
O44         Ni45   1.989       .  S
Ni45         O49   1.917       .  S
Ni45         O47   1.903       .  S
O46         Ni51   1.925       .  S
C48          O49   1.274       .  A
C48         C957   1.502       .  S
O53         Ni59   1.919       .  S
O53          C74   1.274       .  A
O54         Ni77   1.901       .  S
O54          C63   1.268       .  A
O55         Ni59   1.881       .  S
O55         Ni77   1.865       .  S
O55         Ni71   1.896       .  S
O55          H78   0.967       .  S
C56          O73   1.273       .  A
C56          O65   1.274       .  A
C56         C801   1.481       .  S
O57         Ni76   1.937       .  S
O57          C63   1.273       .  A
O58         Ni76   1.896       .  S
O58          C60   1.267       .  A
Ni59         O62   1.927       .  S
Ni59         O64   1.916       .  S
C60          O70   1.285       .  A
C60         C813   1.477       .  S
O61         Ni77   1.912       .  S
O61          C67   1.282       .  A
O62          C67   1.283       .  A
C63         C849   1.481       .  S
O64          C66   1.269       .  A
O65         Ni76   1.922       .  S
C66          O72   1.271       .  A
C66         C840   1.493       .  S
C67         C948   1.469       .  S
H68          O69   0.966       .  S
O69         Ni77   1.934       .  S
O69         Ni71   1.915       .  S
O69         Ni76   1.906       .  S
O70         Ni71   1.961       .  S
Ni71         O75   1.922       .  S
Ni71         O73   1.931       .  S
O72         Ni77   1.916       .  S
C74          O75   1.282       .  A
C74         C828   1.490       .  S
O79         Ni85   1.918       .  S
O79         C100   1.271       .  A
O80        Ni103   1.898       .  S
O80          C89   1.265   1_556  A
O81         Ni85   1.878       .  S
O81        Ni103   1.861       .  S
O81         Ni97   1.877   1_565  S
O81         H104   0.967       .  S
C82          O99   1.262       .  A
C82          O91   1.269       .  A
C82         C765   1.498       .  S
O83        Ni102   1.940   1_554  S
O83          C89   1.273   1_545  A
O84        Ni102   1.875       .  S
O84          C86   1.272       .  A
Ni85         O88   1.934       .  S
Ni85         O90   1.901       .  S
C86          O96   1.296       .  A
C86         C753   1.479       .  S
O87        Ni103   1.901       .  S
O87          C93   1.278       .  A
O88          C93   1.282       .  A
C89         C777   1.491       .  S
O90          C92   1.264       .  A
O91        Ni102   1.929       .  S
C92          O98   1.273       .  A
C92         C789   1.492       .  S
C93         C885   1.459       .  S
H94          O95   0.966   1_565  S
O95        Ni103   1.953   1_545  S
O95         Ni97   1.940       .  S
O95        Ni102   1.914       .  S
O96         Ni97   1.987       .  S
Ni97        O101   1.931       .  S
Ni97         O99   1.913       .  S
O98        Ni103   1.938       .  S
C100        O101   1.280   1_565  A
C100        C825   1.498       .  S
O105       Ni111   1.927       .  S
O105        C126   1.276       .  A
O106       Ni129   1.893       .  S
O106        C115   1.264       .  A
O107       Ni111   1.883       .  S
O107       Ni129   1.871       .  S
O107       Ni123   1.892       .  S
O107        H130   0.973       .  S
C108        O125   1.270       .  A
C108        O117   1.278       .  A
C108        C816   1.485       .  S
O109       Ni128   1.949       .  S
O109        C115   1.274       .  A
O110       Ni128   1.894       .  S
O110        C112   1.269       .  A
Ni111       O114   1.932       .  S
Ni111       O116   1.919       .  S
C112        O122   1.281       .  A
C112        C933   1.476       .  S
O113       Ni129   1.914       .  S
O113        C119   1.282       .  A
O114        C119   1.284       .  A
C115        C729   1.480       .  S
O116        C118   1.268       .  A
O117       Ni128   1.939       .  S
C118        O124   1.272       .  A
C118        C744   1.489       .  S
C119        C708   1.482       .  S
H120        O121   0.971       .  S
O121       Ni129   1.930       .  S
O121       Ni123   1.920       .  S
O121       Ni128   1.914       .  S
O122       Ni123   1.952       .  S
Ni123       O127   1.913       .  S
Ni123       O125   1.920       .  S
O124       Ni129   1.931       .  S
C126        O127   1.276       .  A
C126        C717   1.491       .  S
O131       Ni137   1.927       .  S
O131        C152   1.278       .  A
O132       Ni155   1.896       .  S
O132        C141   1.268       .  A
O133       Ni137   1.877       .  S
O133       Ni155   1.862       .  S
O133       Ni149   1.892       .  S
O133        H156   0.967       .  S
C134        O151   1.271       .  A
C134        O143   1.277       .  A
C134        C876   1.484       .  S
O135       Ni154   1.944       .  S
O135        C141   1.275       .  A
O136       Ni154   1.897       .  S
O136        C138   1.270       .  A
Ni137       O140   1.931       .  S
Ni137       O142   1.923       .  S
C138        O148   1.288       .  A
C138        C768   1.498       .  S
O139       Ni155   1.926       .  S
O139        C145   1.288       .  A
O140        C145   1.284       .  A
C141        C681   1.476   1_556  S
O142        C144   1.270       .  A
O143       Ni154   1.935       .  S
C144        O150   1.269       .  A
C144        C672   1.502       .  S
C145        C696   1.469       .  S
H146        O147   0.965       .  S
O147       Ni155   1.929       .  S
O147       Ni149   1.909       .  S
O147       Ni154   1.894       .  S
O148       Ni149   1.970       .  S
Ni149       O153   1.914       .  S
Ni149       O151   1.929       .  S
O150       Ni155   1.923       .  S
C152        O153   1.280       .  A
C152        C720   1.493       .  S
O157       Ni163   1.916       .  S
O157        C178   1.270       .  A
O158       Ni181   1.906       .  S
O158        C167   1.268       .  A
O159       Ni163   1.883       .  S
O159       Ni181   1.880       .  S
O159       Ni175   1.892       .  S
O159        H182   0.966       .  S
C160        O177   1.270       .  A
C160        O169   1.282       .  A
C160        C924   1.486       .  S
O161       Ni180   1.961   1_545  S
O161        C167   1.278       .  A
O162       Ni180   1.894       .  S
O162        C164   1.269       .  A
Ni163       O166   1.923       .  S
Ni163       O168   1.897       .  S
C164        O174   1.282   1_565  A
C164        C804   1.486       .  S
O165       Ni181   1.921       .  S
O165        C171   1.282       .  A
O166        C171   1.281       .  A
C167        C657   1.496       .  S
O168        C170   1.263       .  A
O169       Ni180   1.946       .  S
C170        O176   1.273       .  A
C170        C648   1.496       .  S
C171        C705   1.466       .  S
H172        O173   0.965       .  S
O173       Ni181   1.923       .  S
O173       Ni175   1.919       .  S
O173       Ni180   1.902   1_545  S
O174       Ni175   1.955       .  S
Ni175       O179   1.921       .  S
Ni175       O177   1.917   1_545  S
O176       Ni181   1.934       .  S
C178        O179   1.276       .  A
C178        C633   1.492       .  S
O183       Ni189   1.913       .  S
O183        C204   1.270       .  A
O184       Ni207   1.883       .  S
O184        C193   1.262       .  A
O185       Ni189   1.879       .  S
O185       Ni207   1.869       .  S
O185       Ni201   1.895   1_655  S
O185        H208   0.967       .  S
C186        O203   1.272       .  A
C186        O195   1.280       .  A
C186        C756   1.483       .  S
O187       Ni206   1.960       .  S
O187        C193   1.278   1_455  A
O188       Ni206   1.897       .  S
O188        C190   1.268       .  A
Ni189       O192   1.919       .  S
Ni189       O194   1.913       .  S
C190        O200   1.282       .  A
C190        C861   1.480       .  S
O191       Ni207   1.930       .  S
O191        C197   1.286       .  A
O192        C197   1.284       .  A
C193        C609   1.499   1_556  S
O194        C196   1.265       .  A
O195       Ni206   1.938       .  S
C196        O202   1.268       .  A
C196        C621   1.480       .  S
C197        C693   1.485       .  S
H198        O199   0.965   1_655  S
O199       Ni207   1.920   1_455  S
O199       Ni201   1.913       .  S
O199       Ni206   1.904       .  S
O200       Ni201   1.953       .  S
Ni201       O205   1.919       .  S
Ni201       O203   1.921       .  S
O202       Ni207   1.922       .  S
C204        O205   1.278   1_655  A
C204        C636   1.486       .  S
O209       Ni215   1.951       .  S
O209        C230   1.274       .  A
O210       Ni233   1.923       .  S
O210        C219   1.278       .  A
O211       Ni215   1.928       .  S
O211       Ni233   1.938       .  S
O211       Ni227   1.940       .  S
O211        H234   0.965       .  S
C212        O229   1.284       .  A
C212        O221   1.281       .  A
C212        C585   1.478       .  S
O213       Ni232   1.915       .  S
O213        C219   1.270       .  A
O214       Ni232   1.912       .  S
O214        C216   1.267       .  A
Ni215       O218   1.939       .  S
Ni215       O220   1.875       .  S
C216        O226   1.270       .  A
C216        C612   1.476       .  S
O217       Ni233   1.918       .  S
O217        C223   1.268       .  A
O218        C223   1.276       .  A
C219        C597   1.494       .  S
O220        C222   1.265       .  A
O221       Ni232   1.924       .  S
C222        O228   1.286       .  A
C222        C573   1.475       .  S
C223        C561   1.494       .  S
H224        O225   0.966       .  S
O225       Ni233   1.892       .  S
O225       Ni227   1.869       .  S
O225       Ni232   1.889       .  S
O226       Ni227   1.921       .  S
Ni227       O231   1.896       .  S
Ni227       O229   1.929       .  S
O228       Ni233   1.968       .  S
C230        O231   1.265       .  A
C230        C669   1.498       .  S
O235       Ni241   1.944       .  S
O235        C256   1.275       .  A
O236       Ni259   1.918       .  S
O236        C245   1.279   1_455  A
O237       Ni241   1.896       .  S
O237       Ni259   1.910       .  S
O237       Ni253   1.927   1_455  S
O237        H260   0.965       .  S
C238        O255   1.286       .  A
C238        O247   1.282       .  A
C238        C552   1.467       .  S
O239       Ni258   1.922       .  S
O239        C245   1.273       .  A
O240       Ni258   1.910       .  S
O240        C242   1.268       .  A
Ni241       O244   1.933       .  S
Ni241       O246   1.903       .  S
C242        O252   1.272       .  A
C242        C732   1.501       .  S
O243       Ni259   1.930       .  S
O243        C249   1.273       .  A
O244        C249   1.278       .  A
C245        C600   1.493       .  S
O246        C248   1.269       .  A
O247       Ni258   1.927       .  S
C248        O254   1.283       .  A
C248        C525   1.486       .  S
C249        C537   1.483       .  S
H250        O251   0.967       .  S
O251       Ni259   1.893   1_655  S
O251       Ni253   1.871       .  S
O251       Ni258   1.874       .  S
O252       Ni253   1.936       .  S
Ni253       O257   1.901       .  S
Ni253       O255   1.924       .  S
O254       Ni259   1.956       .  S
C256        O257   1.270   1_455  A
C256        C645   1.477   1_455  S
O261       Ni267   1.936   1_545  S
O261        C282   1.271       .  A
O262       Ni285   1.921       .  S
O262        C271   1.276       .  A
O263       Ni267   1.928   1_545  S
O263       Ni285   1.937       .  S
O263       Ni279   1.942       .  S
O263        H286   0.965       .  S
C264        O281   1.281       .  A
C264        O273   1.280       .  A
C264        C588   1.475       .  S
O265       Ni284   1.919       .  S
O265        C271   1.270       .  A
O266       Ni284   1.903       .  S
O266        C268   1.265       .  A
Ni267       O270   1.929       .  S
Ni267       O272   1.875       .  S
C268        O278   1.272       .  A
C268        C684   1.495       .  S
O269       Ni285   1.919   1_565  S
O269        C275   1.268       .  A
O270        C275   1.272       .  A
C271        C513   1.493       .  S
O272        C274   1.266       .  A
O273       Ni284   1.927       .  S
C274        O280   1.286   1_565  A
C274        C492   1.478       .  S
C275        C501   1.490       .  S
H276        O277   0.967       .  S
O277       Ni285   1.895       .  S
O277       Ni279   1.874       .  S
O277       Ni284   1.898       .  S
O278       Ni279   1.923       .  S
Ni279       O283   1.896       .  S
Ni279       O281   1.924       .  S
O280       Ni285   1.971       .  S
C282        O283   1.264       .  A
C282        C624   1.500   1_554  S
O287       Ni293   1.954       .  S
O287        C308   1.278       .  A
O288       Ni311   1.924       .  S
O288        C297   1.280       .  A
O289       Ni293   1.903       .  S
O289       Ni311   1.912       .  S
O289       Ni305   1.928       .  S
O289        H312   0.967       .  S
C290        O307   1.287       .  A
C290        O299   1.282       .  A
C290        C549   1.478       .  S
O291       Ni310   1.919       .  S
O291        C297   1.274       .  A
O292       Ni310   1.913       .  S
O292        C294   1.270       .  A
Ni293       O296   1.943       .  S
Ni293       O298   1.893       .  S
C294        O304   1.276       .  A
C294        C660   1.495       .  S
O295       Ni311   1.923       .  S
O295        C301   1.272       .  A
O296        C301   1.281       .  A
C297        C516   1.494       .  S
O298        C300   1.268       .  A
O299       Ni310   1.911       .  S
C300        O306   1.285       .  A
C300        C477   1.487       .  S
C301        C465   1.485       .  S
H302        O303   0.965       .  S
O303       Ni311   1.898       .  S
O303       Ni305   1.869       .  S
O303       Ni310   1.870       .  S
O304       Ni305   1.946       .  S
Ni305       O309   1.898       .  S
Ni305       O307   1.935       .  S
O306       Ni311   1.965       .  S
C308        O309   1.269       .  A
C308        C741   1.505       .  S
O313       Ni319   1.948       .  S
O313        C334   1.277       .  A
O314       Ni337   1.924       .  S
O314        C323   1.279       .  A
O315       Ni319   1.901       .  S
O315       Ni337   1.914       .  S
O315       Ni331   1.932       .  S
O315        H338   0.964       .  S
C316        O333   1.285       .  A
C316        O325   1.281       .  A
C316        C441   1.473       .  S
O317       Ni336   1.916       .  S
O317        C323   1.273       .  A
O318       Ni336   1.910       .  S
O318        C320   1.267       .  A
Ni319       O322   1.943       .  S
Ni319       O324   1.898       .  S
C320        O330   1.270       .  A
C320        C912   1.479       .  S
O321       Ni337   1.906       .  S
O321        C327   1.267       .  A
O322        C327   1.279       .  A
C323        C456   1.491       .  S
O324        C326   1.270       .  A
O325       Ni336   1.912       .  S
C326        O332   1.286       .  A
C326        C504   1.486       .  S
C327        C576   1.483       .  S
H328        O329   0.966       .  S
O329       Ni337   1.885       .  S
O329       Ni331   1.866       .  S
O329       Ni336   1.874       .  S
O330       Ni331   1.925       .  S
Ni331       O335   1.896       .  S
Ni331       O333   1.921       .  S
O332       Ni337   1.961       .  S
C334        O335   1.268       .  A
C334        C792   1.481       .  S
O339       Ni345   1.938       .  S
O339        C360   1.274       .  A
O340       Ni363   1.920       .  S
O340        C349   1.275       .  A
O341       Ni345   1.923       .  S
O341       Ni363   1.937       .  S
O341       Ni357   1.962       .  S
O341        H364   0.966       .  S
C342        O359   1.285       .  A
C342        O351   1.280       .  A
C342        C429   1.480       .  S
O343       Ni362   1.917       .  S
O343        C349   1.271       .  A
O344       Ni362   1.909       .  S
O344        C346   1.267       .  A
Ni345       O348   1.937       .  S
Ni345       O350   1.873       .  S
C346        O356   1.271       .  A
C346        C852   1.495       .  S
O347       Ni363   1.910       .  S
O347        C353   1.261       .  A
O348        C353   1.271       .  A
C349        C453   1.495       .  S
O350        C352   1.271       .  A
O351       Ni362   1.924       .  S
C352        O358   1.293       .  A
C352        C540   1.479       .  S
C353        C480   1.498       .  S
H354        O355   0.966       .  S
O355       Ni363   1.880       .  S
O355       Ni357   1.864       .  S
O355       Ni362   1.886       .  S
O356       Ni357   1.926       .  S
Ni357       O361   1.903       .  S
Ni357       O359   1.924       .  S
O358       Ni363   1.982       .  S
C360        O361   1.268       .  A
C360        C972   1.494       .  S
O365       Ni371   1.951   1_455  S
O365        C386   1.276       .  A
O366       Ni389   1.918       .  S
O366        C375   1.281       .  A
O367       Ni371   1.900   1_455  S
O367       Ni389   1.911       .  S
O367       Ni383   1.922       .  S
O367        H390   0.966       .  S
C368        O385   1.284       .  A
C368        O377   1.282       .  A
C368        C444   1.465       .  S
O369       Ni388   1.925       .  S
O369        C375   1.274       .  A
O370       Ni388   1.919       .  S
O370        C372   1.270       .  A
Ni371       O374   1.936       .  S
Ni371       O376   1.896       .  S
C372        O382   1.270       .  A
C372        C780   1.500       .  S
O373       Ni389   1.920   1_655  S
O373        C379   1.271       .  A
O374        C379   1.278       .  A
C375        C417   1.488       .  S
O376        C378   1.269       .  A
O377       Ni388   1.917       .  S
C378        O384   1.286       .  A
C378        C564   1.489       .  S
C379        C489   1.482       .  S
H380        O381   0.967       .  S
O381       Ni389   1.891       .  S
O381       Ni383   1.870       .  S
O381       Ni388   1.881       .  S
O382       Ni383   1.921       .  S
Ni383       O387   1.895       .  S
Ni383       O385   1.920       .  S
O384       Ni389   1.968   1_655  S
C386        O387   1.268       .  A
C386        C900   1.494       .  S
O391       Ni397   1.931       .  S
O391        C412   1.273   1_545  A
O392       Ni415   1.930       .  S
O392        C401   1.277   1_545  A
O393       Ni397   1.916       .  S
O393       Ni415   1.927       .  S
O393       Ni409   1.958   1_545  S
O393        H416   0.965       .  S
C394        O411   1.286       .  A
C394        O403   1.282       .  A
C394        C432   1.483       .  S
O395       Ni414   1.912       .  S
O395        C401   1.267       .  A
O396       Ni414   1.908       .  S
O396        C398   1.265       .  A
Ni397       O400   1.943       .  S
Ni397       O402   1.877       .  S
C398        O408   1.272       .  A
C398        C984   1.486       .  S
O399       Ni415   1.908       .  S
O399        C405   1.261       .  A
O400        C405   1.271       .  A
C401        C420   1.496       .  S
O402        C404   1.271       .  A
O403       Ni414   1.926       .  S
C404        O410   1.297       .  A
C404        C468   1.480       .  S
C405        C528   1.497       .  S
H406        O407   0.967       .  S
O407       Ni415   1.884   1_565  S
O407       Ni409   1.862       .  S
O407       Ni414   1.880       .  S
O408       Ni409   1.933       .  S
Ni409       O413   1.899       .  S
Ni409       O411   1.923       .  S
O410       Ni415   1.993       .  S
C412        O413   1.268       .  A
C412        C837   1.485       .  S
C417        C418   1.398       .  A
C417        C422   1.419       .  A
C418        C419   1.398       .  A
C418        H423   1.085       .  S
C419        C420   1.424       .  A
C419        C426   1.445       .  S
C420        C421   1.405   1_565  A
C421        C422   1.406   1_545  A
C421        H424   1.084       .  S
C422        C425   1.445   1_565  S
C425        N427   1.157       .  T
C426        N428   1.157       .  T
C429        C430   1.399       .  A
C429        C434   1.418       .  A
C430        C431   1.398       .  A
C430        H435   1.084       .  S
C431        C432   1.420       .  A
C431        C438   1.445       .  S
C432        C433   1.401       .  A
C433        C434   1.398       .  A
C433        H436   1.084       .  S
C434        C437   1.445       .  S
C437        N439   1.157       .  T
C438        N440   1.157       .  T
C441        C442   1.405       .  A
C441        C446   1.415       .  A
C442        C443   1.401       .  A
C442        H447   1.085       .  S
C443        C444   1.410       .  A
C443        C450   1.444       .  S
C444        C445   1.399       .  A
C445        C446   1.391       .  A
C445        H448   1.086       .  S
C446        C449   1.446       .  S
C449        N451   1.157       .  T
C450        N452   1.157       .  T
C453        C454   1.413       .  A
C453        C458   1.413       .  A
C454        C455   1.404       .  A
C454        H459   1.084       .  S
C455        C456   1.411       .  A
C455        C462   1.444       .  S
C456        C457   1.410       .  A
C457        C458   1.400       .  A
C457        H460   1.085       .  S
C458        C461   1.444       .  S
C461        N463   1.157       .  T
C462        N464   1.157       .  T
C465        C466   1.406       .  A
C465        C470   1.408       .  A
C466        C467   1.407       .  A
C466        H471   1.085       .  S
C467        C468   1.410       .  A
C467        C474   1.442       .  S
C468        C469   1.409       .  A
C469        C470   1.406       .  A
C469        H472   1.084   1_545  S
C470        C473   1.443       .  S
C473        N475   1.157   1_545  T
C474        N476   1.157       .  T
C477        C478   1.406       .  A
C477        C482   1.413       .  A
C478        C479   1.401       .  A
C478        H483   1.085       .  S
C479        C480   1.413       .  A
C479        C486   1.443       .  S
C480        C481   1.411       .  A
C481        C482   1.413       .  A
C481        H484   1.084       .  S
C482        C485   1.444       .  S
C485        N487   1.157       .  T
C486        N488   1.157       .  T
C489        C490   1.398       .  A
C489        C494   1.416       .  A
C490        C491   1.401   1_565  A
C490        H495   1.085   1_565  S
C491        C492   1.417   1_545  A
C491        C498   1.446       .  S
C492        C493   1.402       .  A
C493        C494   1.408       .  A
C493        H496   1.085       .  S
C494        C497   1.443       .  S
C497        N499   1.157       .  T
C498        N500   1.157       .  T
C501        C502   1.402       .  A
C501        C506   1.414       .  A
C502        C503   1.399       .  A
C502        H507   1.085       .  S
C503        C504   1.416       .  A
C503        C510   1.444       .  S
C504        C505   1.407       .  A
C505        C506   1.411       .  A
C505        H508   1.085       .  S
C506        C509   1.442       .  S
C509        N511   1.157       .  T
C510        N512   1.157       .  T
C513        C514   1.412       .  A
C513        C518   1.411       .  A
C514        C515   1.405       .  A
C514        H519   1.084       .  S
C515        C516   1.412       .  A
C515        C522   1.444       .  S
C516        C517   1.411       .  A
C517        C518   1.400       .  A
C517        H520   1.084       .  S
C518        C521   1.444       .  S
C521        N523   1.157   1_545  T
C522        N524   1.158       .  T
C525        C526   1.404       .  A
C525        C530   1.413       .  A
C526        C527   1.410       .  A
C526        H531   1.084       .  S
C527        C528   1.419       .  A
C527        C534   1.443       .  S
C528        C529   1.404       .  A
C529        C530   1.399       .  A
C529        H532   1.084       .  S
C530        C533   1.444       .  S
C533        N535   1.157       .  T
C534        N536   1.157       .  T
C537        C538   1.409       .  A
C537        C542   1.406       .  A
C538        C539   1.409       .  A
C538        H543   1.084       .  S
C539        C540   1.407       .  A
C539        C546   1.442       .  S
C540        C541   1.409       .  A
C541        C542   1.400       .  A
C541        H544   1.084       .  S
C542        C545   1.444       .  S
C545        N547   1.157       .  T
C546        N548   1.157       .  T
C549        C550   1.408       .  A
C549        C554   1.410       .  A
C550        C551   1.393       .  A
C550        H555   1.084       .  S
C551        C552   1.404       .  A
C551        C558   1.444       .  S
C552        C553   1.407       .  A
C553        C554   1.403       .  A
C553        H556   1.085       .  S
C554        C557   1.444       .  S
C557        N559   1.157       .  T
C558        N560   1.157       .  T
C561        C562   1.408       .  A
C561        C566   1.411       .  A
C562        C563   1.414       .  A
C562        H567   1.084       .  S
C563        C564   1.415       .  A
C563        C570   1.443   1_655  S
C564        C565   1.407       .  A
C565        C566   1.401       .  A
C565        H568   1.084       .  S
C566        C569   1.444       .  S
C569        N571   1.157       .  T
C570        N572   1.157       .  T
C573        C574   1.400       .  A
C573        C578   1.416       .  A
C574        C575   1.406       .  A
C574        H579   1.085       .  S
C575        C576   1.418       .  A
C575        C582   1.444       .  S
C576        C577   1.398       .  A
C577        C578   1.402       .  A
C577        H580   1.085       .  S
C578        C581   1.443       .  S
C581        N583   1.156       .  T
C582        N584   1.157       .  T
C585        C586   1.402       .  A
C585        C590   1.415       .  A
C586        C587   1.400       .  A
C586        H591   1.084       .  S
C587        C588   1.413       .  A
C587        C594   1.444       .  S
C588        C589   1.401       .  A
C589        C590   1.400       .  A
C589        H592   1.085       .  S
C590        C593   1.445       .  S
C593        N595   1.157       .  T
C594        N596   1.157       .  T
C597        C598   1.402       .  A
C597        C602   1.422       .  A
C598        C599   1.401       .  A
C598        H603   1.085       .  S
C599        C600   1.422       .  A
C599        C606   1.445       .  S
C600        C601   1.402       .  A
C601        C602   1.403       .  A
C601        H604   1.085   1_655  S
C602        C605   1.445   1_655  S
C605        N607   1.157       .  T
C606        N608   1.157       .  T
C609        C610   1.416   1_655  A
C609        C614   1.421       .  A
C610        C611   1.413   1_455  A
C610        H615   1.084       .  S
C611        C612   1.408       .  A
C611        C618   1.442   1_655  S
C612        C613   1.397       .  A
C613        C614   1.390       .  A
C613        H616   1.085       .  S
C614        C617   1.446       .  S
C617        N619   1.157       .  T
C618        N620   1.157       .  T
C621        C622   1.401       .  A
C621        C626   1.406       .  A
C622        C623   1.395       .  A
C622        H627   1.083       .  S
C623        C624   1.418       .  A
C623        C630   1.446       .  S
C624        C625   1.417       .  A
C625        C626   1.411       .  A
C625        H628   1.084   1_545  S
C626        C629   1.442       .  S
C629        N631   1.157   1_545  T
C630        N632   1.158       .  T
C633        C634   1.413       .  A
C633        C638   1.411       .  A
C634        C635   1.399       .  A
C634        H639   1.084       .  S
C635        C636   1.409       .  A
C635        C642   1.445   1_655  S
C636        C637   1.411       .  A
C637        C638   1.401       .  A
C637        H640   1.085       .  S
C638        C641   1.444       .  S
C641        N643   1.157   1_545  T
C642        N644   1.157       .  T
C645        C646   1.399   1_655  A
C645        C650   1.408       .  A
C646        C647   1.406   1_455  A
C646        H651   1.085       .  S
C647        C648   1.424       .  A
C647        C654   1.444   1_655  S
C648        C649   1.406       .  A
C649        C650   1.398       .  A
C649        H652   1.084       .  S
C650        C653   1.441       .  S
C653        N655   1.156       .  T
C654        N656   1.158       .  T
C657        C658   1.411       .  A
C657        C662   1.413       .  A
C658        C659   1.413       .  A
C658        H663   1.084       .  S
C659        C660   1.410       .  A
C659        C666   1.441       .  S
C660        C661   1.408       .  A
C661        C662   1.405       .  A
C661        H664   1.083       .  S
C662        C665   1.445       .  S
C665        N667   1.158       .  T
C666        N668   1.157       .  T
C669        C670   1.403       .  A
C669        C674   1.416   1_554  A
C670        C671   1.396   1_554  A
C670        H675   1.085       .  S
C671        C672   1.423       .  A
C671        C678   1.447       .  S
C672        C673   1.411       .  A
C673        C674   1.415       .  A
C673        H676   1.084       .  S
C674        C677   1.442       .  S
C677        N679   1.157       .  T
C678        N680   1.158   1_556  T
C681        C682   1.400       .  A
C681        C686   1.407   1_554  A
C682        C683   1.406       .  A
C682        H687   1.085       .  S
C683        C684   1.423       .  A
C683        C690   1.444       .  S
C684        C685   1.407       .  A
C685        C686   1.395   1_554  A
C685        H688   1.085       .  S
C686        C689   1.441       .  S
C689        N691   1.155       .  T
C690        N692   1.157       .  T
C693        C694   1.409       .  A
C693        C698   1.413       .  A
C694        C695   1.392       .  A
C694        H699   1.085       .  S
C695        C696   1.403       .  A
C695        C702   1.442       .  S
C696        C697   1.407       .  A
C697        C698   1.404       .  A
C697        H700   1.085       .  S
C698        C701   1.444       .  S
C701        N703   1.157       .  T
C702        N704   1.156       .  T
C705        C706   1.397       .  A
C705        C710   1.409       .  A
C706        C707   1.397       .  A
C706        H711   1.085       .  S
C707        C708   1.419       .  A
C707        C714   1.445       .  S
C708        C709   1.405       .  A
C709        C710   1.398       .  A
C709        H712   1.085       .  S
C710        C713   1.444       .  S
C713        N715   1.157       .  T
C714        N716   1.157       .  T
C717        C718   1.410       .  A
C717        C722   1.412       .  A
C718        C719   1.402       .  A
C718        H723   1.085       .  S
C719        C720   1.413       .  A
C719        C726   1.444       .  S
C720        C721   1.411       .  A
C721        C722   1.400       .  A
C721        H724   1.084       .  S
C722        C725   1.445       .  S
C725        N727   1.158       .  T
C726        N728   1.157       .  T
C729        C730   1.402       .  A
C729        C734   1.406       .  A
C730        C731   1.402       .  A
C730        H735   1.086       .  S
C731        C732   1.420       .  A
C731        C738   1.444       .  S
C732        C733   1.414       .  A
C733        C734   1.406       .  A
C733        H736   1.084       .  S
C734        C737   1.443       .  S
C737        N739   1.157       .  T
C738        N740   1.157       .  T
C741        C742   1.417       .  A
C741        C746   1.418       .  A
C742        C743   1.414       .  A
C742        H747   1.084       .  S
C743        C744   1.410       .  A
C743        C750   1.442       .  S
C744        C745   1.403       .  A
C745        C746   1.397       .  A
C745        H748   1.084       .  S
C746        C749   1.445       .  S
C749        N751   1.158       .  T
C750        N752   1.157       .  T
C753        C754   1.410       .  A
C753        C758   1.409       .  A
C754        C755   1.400       .  A
C754        H759   1.086   1_545  S
C755        C756   1.406       .  A
C755        C762   1.443       .  S
C756        C757   1.409       .  A
C757        C758   1.409       .  A
C757        H760   1.084       .  S
C758        C761   1.443       .  S
C761        N763   1.157       .  T
C762        N764   1.157       .  T
C765        C766   1.413       .  A
C765        C770   1.415       .  A
C766        C767   1.415       .  A
C766        H771   1.084       .  S
C767        C768   1.413       .  A
C767        C774   1.440       .  S
C768        C769   1.408       .  A
C769        C770   1.395       .  A
C769        H772   1.084       .  S
C770        C773   1.446       .  S
C773        N775   1.157       .  T
C774        N776   1.157       .  T
C777        C778   1.406       .  A
C777        C782   1.410       .  A
C778        C779   1.400       .  A
C778        H783   1.085   1_554  S
C779        C780   1.417       .  A
C779        C786   1.445       .  S
C780        C781   1.414       .  A
C781        C782   1.411       .  A
C781        H784   1.084       .  S
C782        C785   1.442   1_565  S
C785        N787   1.157       .  T
C786        N788   1.157       .  T
C789        C790   1.404   1_556  A
C789        C794   1.423       .  A
C790        C791   1.400       .  A
C790        H795   1.085       .  S
C791        C792   1.413       .  A
C791        C798   1.443       .  S
C792        C793   1.400   1_554  A
C793        C794   1.404       .  A
C793        H796   1.085       .  S
C794        C797   1.445       .  S
C797        N799   1.158       .  T
C798        N800   1.157       .  T
C801        C802   1.400       .  A
C801        C806   1.410       .  A
C802        C803   1.398       .  A
C802        H807   1.086       .  S
C803        C804   1.417       .  A
C803        C810   1.446       .  S
C804        C805   1.408       .  A
C805        C806   1.411       .  A
C805        H808   1.084   1_565  S
C806        C809   1.441   1_565  S
C809        N811   1.157       .  T
C810        N812   1.157       .  T
C813        C814   1.408       .  A
C813        C818   1.410       .  A
C814        C815   1.405       .  A
C814        H819   1.085       .  S
C815        C816   1.407       .  A
C815        C822   1.443       .  S
C816        C817   1.408       .  A
C817        C818   1.408       .  A
C817        H820   1.085       .  S
C818        C821   1.444       .  S
C821        N823   1.157       .  T
C822        N824   1.157       .  T
C825        C826   1.413       .  A
C825        C830   1.413   1_565  A
C826        C827   1.399       .  A
C826        H831   1.084       .  S
C827        C828   1.409       .  A
C827        C834   1.445       .  S
C828        C829   1.412       .  A
C829        C830   1.408   1_565  A
C829        H832   1.085   1_565  S
C830        C833   1.444       .  S
C833        N835   1.158       .  T
C834        N836   1.157       .  T
C837        C838   1.404       .  A
C837        C842   1.414       .  A
C838        C839   1.409       .  A
C838        H843   1.085   1_565  S
C839        C840   1.421       .  A
C839        C846   1.444       .  S
C840        C841   1.405       .  A
C841        C842   1.395       .  A
C841        H844   1.085       .  S
C842        C845   1.445       .  S
C845        N847   1.157       .  T
C846        N848   1.157       .  T
C849        C850   1.402       .  A
C849        C854   1.411       .  A
C850        C851   1.403       .  A
C850        H855   1.085       .  S
C851        C852   1.420       .  A
C851        C858   1.444       .  S
C852        C853   1.408       .  A
C853        C854   1.399       .  A
C853        H856   1.085       .  S
C854        C857   1.443       .  S
C857        N859   1.157       .  T
C858        N860   1.157       .  T
C861        C862   1.404       .  A
C861        C866   1.414       .  A
C862        C863   1.407       .  A
C862        H867   1.085       .  S
C863        C864   1.418       .  A
C863        C870   1.444       .  S
C864        C865   1.404       .  A
C865        C866   1.399       .  A
C865        H868   1.085       .  S
C866        C869   1.444       .  S
C869        N871   1.157       .  T
C870        N872   1.157       .  T
C873        C874   1.402       .  A
C873        C878   1.415       .  A
C874        C875   1.406       .  A
C874        H879   1.085       .  S
C875        C876   1.414       .  A
C875        C882   1.442       .  S
C876        C877   1.399       .  A
C877        C878   1.405       .  A
C877        H880   1.085       .  S
C878        C881   1.441       .  S
C881        N883   1.156       .  T
C882        N884   1.157       .  T
C885        C886   1.402       .  A
C885        C890   1.401       .  A
C886        C887   1.398       .  A
C886        H891   1.086       .  S
C887        C888   1.416       .  A
C887        C894   1.444       .  S
C888        C889   1.413       .  A
C889        C890   1.391       .  A
C889        H892   1.084       .  S
C890        C893   1.445       .  S
C893        N895   1.157       .  T
C894        N896   1.158       .  T
C897        C898   1.411       .  A
C897        C902   1.423   1_556  A
C898        C899   1.412   1_556  A
C898        H903   1.084       .  S
C899        C900   1.415       .  A
C899        C906   1.443   1_454  S
C900        C901   1.401       .  A
C901        C902   1.396       .  A
C901        H904   1.085       .  S
C902        C905   1.446       .  S
C905        N907   1.157       .  T
C906        N908   1.157       .  T
C909        C910   1.399       .  A
C909        C914   1.413       .  A
C910        C911   1.404       .  A
C910        H915   1.085       .  S
C911        C912   1.417       .  A
C911        C918   1.444       .  S
C912        C913   1.400       .  A
C913        C914   1.402       .  A
C913        H916   1.085       .  S
C914        C917   1.441   1_554  S
C917        N919   1.156       .  T
C918        N920   1.157       .  T
C921        C922   1.404       .  A
C921        C926   1.419   1_655  A
C922        C923   1.411       .  A
C922        H927   1.084       .  S
C923        C924   1.416       .  A
C923        C930   1.443       .  S
C924        C925   1.396       .  A
C925        C926   1.401   1_655  A
C925        H928   1.085   1_655  S
C926        C929   1.444       .  S
C929        N931   1.157       .  T
C930        N932   1.157       .  T
C933        C934   1.405       .  A
C933        C938   1.412       .  A
C934        C935   1.400       .  A
C934        H939   1.085       .  S
C935        C936   1.410       .  A
C935        C942   1.444       .  S
C936        C937   1.406       .  A
C937        C938   1.406       .  A
C937        H940   1.085       .  S
C938        C941   1.444       .  S
C941        N943   1.157       .  T
C942        N944   1.157       .  T
C945        C946   1.402       .  A
C945        C950   1.410       .  A
C946        C947   1.398       .  A
C946        H951   1.083       .  S
C947        C948   1.411       .  A
C947        C954   1.445       .  S
C948        C949   1.402       .  A
C949        C950   1.395       .  A
C949        H952   1.085       .  S
C950        C953   1.445       .  S
C953        N955   1.157       .  T
C954        N956   1.157       .  T
C957        C958   1.411       .  A
C957        C962   1.416       .  A
C958        C959   1.407       .  A
C958        H963   1.084       .  S
C959        C960   1.415       .  A
C959        C966   1.444   1_455  S
C960        C961   1.409       .  A
C961        C962   1.404       .  A
C961        H964   1.085       .  S
C962        C965   1.444       .  S
C965        N967   1.157       .  T
C966        N968   1.157       .  T
C969        C970   1.407       .  A
C969        C974   1.420       .  A
C970        C971   1.397       .  A
C970        H975   1.085       .  S
C971        C972   1.416       .  A
C971        C978   1.445       .  S
C972        C973   1.407       .  A
C973        C974   1.412       .  A
C973        H976   1.084       .  S
C974        C977   1.443       .  S
C977        N979   1.157       .  T
C978        N980   1.157       .  T
C981        C982   1.411       .  A
C981        C986   1.416       .  A
C982        C983   1.408       .  A
C982        H987   1.084       .  S
C983        C984   1.411       .  A
C983        C990   1.443       .  S
C984        C985   1.405       .  A
C985        C986   1.400       .  A
C985        H988   1.086       .  S
C986        C989   1.445       .  S
C989        N991   1.157       .  T
C990        N992   1.157   1_455  T
