geometry optimzed in LAMMPS
_audit_creation_date              2020-12-01 
_audit_creation_method            'lammps2cif' 
_symmetry_space_group_name_H-M    'P1' 
_symmetry_Int_Tables_number       1 
_symmetry_cell_setting            triclinic 
loop_ 
_symmetry_equiv_pos_as_xyz 
  x,y,z 
_cell_length_a                    43.42601501 
_cell_length_b                    43.434276618749266 
_cell_length_c                    68.64965523332808 
_cell_angle_alpha                 90.03421382123109 
_cell_angle_beta                  90.0080511198753 
_cell_angle_gamma                 119.96290158419944 
loop_ 
_atom_site_label 
_atom_site_type_symbol 
_atom_site_fract_x 
_atom_site_fract_y 
_atom_site_fract_z 
_atom_site_charge 
Zr1        Zr  0.99095565  0.16752399  0.98437444     2.17500
O2          O  0.45112695  0.19212962  0.98662680    -0.50900
O3          O  0.45865709  0.12224235  0.00901539    -0.74100
O4          O  0.43973836  0.14171981  0.96192446    -0.80900
O5          O  0.04876629  0.24764649  0.01032639    -0.82600
O6          O  0.46115729  0.13109178  0.93418054    -0.78200
O7          O  0.49290289  0.20030513  0.01230663    -0.89900
O8          O  0.99242638  0.09815353  0.01734453    -0.75800
O9          O  0.99496543  0.11847139  0.97211602    -0.85300
O10         O  0.03376235  0.16449378  0.00512540    -0.85000
O11         O  0.01306255  0.18569940  0.95180684    -0.71800
O12         O  0.04572169  0.22374649  0.98203362    -0.83900
Zr13       Zr  0.11265377  0.18504753  0.95676632     2.26400
Zr14       Zr  0.01789010  0.13617772  0.93978076     2.06300
Zr15       Zr  0.08788515  0.21999132  0.00286946     2.10000
Zr16       Zr  0.03802498  0.11557940  0.99252927     1.78800
O17         O  0.12742364  0.27883120  0.01614511    -0.92700
O18         O  0.99552436  0.05309948  0.98645646    -0.40500
O19         O  0.09274381  0.17089708  0.99000234    -0.77200
O20         O  0.05913075  0.12876135  0.95937261    -0.95800
O21         O  0.07174369  0.19146315  0.93704314    -0.89200
O22         O  0.10943203  0.23434910  0.97040167    -0.92000
C23         C  0.46718882  0.10403590  0.02029156     1.01800
C24         C  0.01471383  0.23388691  0.01377353     1.14700
C25         C  0.43718281  0.13297123  0.94390734     1.05500
O26         O  0.99853980  0.07302321  0.94127085    -0.94100
O27         O  0.05550132  0.14721133  0.91150490    -0.89900
O28         O  0.11230819  0.17004344  0.92212417    -0.83000
C29         C  0.08847730  0.15807363  0.90863208     1.12100
O30         O  0.03117871  0.26665035  0.94435713    -0.96100
Zr31       Zr  0.06848817  0.24021107  0.94991391     1.88900
O32         O  0.15570530  0.23999044  0.94200506    -0.72800
O33         O  0.99103837  0.11151612  0.90812604    -0.52000
O34         O  0.05725265  0.24230257  0.91529052    -0.96700
O35         O  0.09418136  0.30017722  0.96316837    -0.53900
O36         O  0.12763538  0.27150147  0.93612266    -0.73300
C37         C  0.15473415  0.26719935  0.93579776     0.99100
O38         O  0.14347494  0.15135853  0.95304736    -0.62100
O39         O  0.08361233  0.20322353  0.03703636    -0.56900
O40         O  0.16403430  0.20712130  0.97724562    -0.93600
O41         O  0.15118404  0.22971011  0.00411314    -0.92000
O42         O  0.06908671  0.11554637  0.02208004    -0.92400
O43         O  0.06582418  0.07895091  0.98994129    -0.91200
C44         C  0.17232133  0.22262384  0.99378487     1.17900
H45         H  0.02676185  0.16181731  0.01862238     0.33800
H46         H  0.06293082  0.11024007  0.95418148     0.44700
H47         H  0.13217856  0.25589736  0.97124212     0.38200
H48         H  0.99722640  0.19065392  0.94433719     0.34700
H49         H  0.99436486  0.04094843  0.99886541     0.26500
H50         H  0.96658489  0.09200190  0.91074419     0.32400
H51         H  0.07280749  0.23506045  0.90856792     0.38300
H52         H  0.05246419  0.09307964  0.02875888     0.32800
H53         H  0.10688197  0.20531582  0.04004219     0.31700
H54         H  0.13882153  0.29386347  0.00457639     0.33400
H55         H  0.11857733  0.30662064  0.96718451     0.32300
H56         H  0.09134011  0.09608094  0.98777349     0.36300
H57         H  0.14432356  0.14283479  0.96630106     0.29100
H58         H  0.42705457  0.17191371  0.98930273     0.33300
H59         H  0.04503581  0.28707433  0.93556548     0.36100
H60         H  0.08384112  0.22313370  0.04419626     0.28700
H61         H  0.12662268  0.12954617  0.94590909     0.41600
H62         H  0.97614490  0.06224162  0.94878551     0.31700
H63         H  0.97213295  0.05175457  0.98550695     0.39300
H64         H  0.08142863  0.29728787  0.97558887     0.31100
H65         H  0.98800200  0.13012479  0.90154524     0.31200
H66         H  0.44982403  0.20081841  0.97348718     0.31500
Zr67       Zr  0.34326217  0.01845404  0.86928223     2.17500
O68         O  0.32016224  0.05925167  0.86561327    -0.50900
O69         O  0.38813214  0.04981544  0.84406312    -0.74100
O70         O  0.36810749  0.06951179  0.89145343    -0.80900
O71         O  0.26387742  0.46120434  0.84332472    -0.82600
O72         O  0.37953209  0.04874353  0.91918543    -0.78200
O73         O  0.30934904  0.01599665  0.84150526    -0.89900
O74         O  0.41204858  0.01536825  0.83609266    -0.75800
O75         O  0.39230156  0.51513315  0.88232218    -0.85300
O76         O  0.34636861  0.47589403  0.84907590    -0.85000
O77         O  0.32459558  0.49641837  0.90218809    -0.71800
O78         O  0.28707977  0.46391458  0.87188314    -0.83900
Zr79       Zr  0.32516212  0.39693098  0.89745280     2.26400
Zr80       Zr  0.37397421  0.49165106  0.91452001     2.06300
Zr81       Zr  0.29093826  0.42165435  0.85117698     2.10000
Zr82       Zr  0.39553303  0.47234147  0.86188592     1.78800
O83         O  0.23141155  0.38256822  0.83859152    -0.92700
O84         O  0.45710576  0.51726866  0.86861998    -0.40500
O85         O  0.34016531  0.41739230  0.86433200    -0.77200
O86         O  0.38147860  0.45054154  0.89491062    -0.95800
O87         O  0.31854968  0.43780800  0.91717770    -0.89200
O88         O  0.27595741  0.39999857  0.88360395    -0.92000
C89         C  0.40637194  0.04115996  0.83290939     1.01800
C90         C  0.27769329  0.49527755  0.83991246     1.14700
C91         C  0.37706881  0.07236782  0.90944254     1.05500
O92         O  0.43697564  0.51011671  0.91367950    -0.94100
O93         O  0.36355553  0.45415042  0.94264078    -0.89900
O94         O  0.33974987  0.39718643  0.93212705    -0.83000
C95         C  0.35229904  0.42115076  0.94553130     1.12100
O96         O  0.24397583  0.47877123  0.90951214    -0.96100
Zr97       Zr  0.27002224  0.44111640  0.90396633     1.88900
O98         O  0.26997003  0.35413791  0.91228849    -0.72800
O99         O  0.39810063  0.51836859  0.94629883    -0.52000
O100        O  0.26788403  0.45217077  0.93860843    -0.96700
O101        O  0.21023160  0.41650612  0.89064455    -0.53900
O102        O  0.23815063  0.38202973  0.91771239    -0.73300
C103        C  0.24262046  0.35506469  0.91833335     0.99100
O104        O  0.35904858  0.36652763  0.90196182    -0.62100
O105        O  0.30786769  0.42468278  0.81707570    -0.56900
O106        O  0.30429396  0.34577083  0.87671936    -0.93600
O107        O  0.28123782  0.35830901  0.84995149    -0.92000
O108        O  0.39811311  0.44220662  0.83253273    -0.92400
O109        O  0.43290496  0.44545562  0.86482523    -0.91200
C110        C  0.28859717  0.33729445  0.86021406     1.17900
H111        H  0.34892807  0.48270800  0.83555420     0.33800
H112        H  0.39989272  0.44666266  0.90018416     0.44700
H113        H  0.25441592  0.37724663  0.88273758     0.38200
H114        H  0.31947876  0.51220747  0.90959198     0.34700
H115        H  0.47045920  0.51750079  0.85687539     0.26500
H116        H  0.41767981  0.54283530  0.94378558     0.32400
H117        H  0.24454368  0.43274609  0.94309476     0.38300
H118        H  0.42078677  0.45930546  0.82619121     0.32800
H119        H  0.32940072  0.42233623  0.81734319     0.31700
H120        H  0.21717969  0.37007000  0.85022628     0.33400
H121        H  0.20349580  0.39211341  0.88647028     0.32300
H122        H  0.41687925  0.42132340  0.86997365     0.36300
H123        H  0.36988036  0.36775255  0.88909239     0.29100
H124        H  0.34084948  0.08323176  0.86338357     0.33300
H125        H  0.22348740  0.46505977  0.91829114     0.36100
H126        H  0.28927286  0.40202472  0.81136034     0.28700
H127        H  0.37945120  0.38250920  0.91031022     0.41600
H128        H  0.44880137  0.03342966  0.90606934     0.31700
H129        H  0.45765551  0.54032790  0.86819360     0.39300
H130        H  0.21340456  0.42957215  0.87831163     0.31100
H131        H  0.37937712  0.52133617  0.95279828     0.31200
H132        H  0.31027739  0.06038619  0.87842181     0.31500
Zr133      Zr  0.34286054  0.30177158  0.31715358     2.17500
O134        O  0.31806309  0.23750954  0.31981548    -0.50900
O135        O  0.38820561  0.31504887  0.34217954    -0.74100
O136        O  0.36852445  0.27631444  0.29510663    -0.80900
O137        O  0.26356289  0.27989439  0.34368895    -0.82600
O138        O  0.37788226  0.30705463  0.26695038    -0.78200
O139        O  0.31056745  0.27155158  0.34558917    -0.89900
O140        O  0.41277072  0.37367275  0.34963627    -0.75800
O141        O  0.39143879  0.35416195  0.30397449    -0.85300
O142        O  0.34625829  0.34814348  0.33755184    -0.85000
O143        O  0.32353083  0.30479713  0.28461648    -0.71800
O144        O  0.28648120  0.30005910  0.31512222    -0.83900
Zr145      Zr  0.32430610  0.40497073  0.28922690     2.26400
Zr146      Zr  0.37233163  0.35872837  0.27180030     2.06300
Zr147      Zr  0.29047679  0.34635720  0.33564097     2.10000
Zr148      Zr  0.39515898  0.40058090  0.32423750     1.78800
O149        O  0.23107574  0.32536441  0.34857575    -0.92700
O150        O  0.45633115  0.41664556  0.31675877    -0.40500
O151        O  0.33946407  0.39959350  0.32228929    -0.77200
O152        O  0.38059038  0.40770138  0.29123325    -0.95800
O153        O  0.31694763  0.35708918  0.26958310    -0.89200
O154        O  0.27530251  0.35289941  0.30325216    -0.92000
C155        C  0.40706270  0.34226512  0.35303532     1.01800
C156        C  0.27750221  0.25975300  0.34714321     1.14700
C157        C  0.37648575  0.28170851  0.27697238     1.05500
O158        O  0.43546235  0.40261728  0.27239045    -0.94100
O159        O  0.36216191  0.38690339  0.24390659    -0.89900
O160        O  0.33896546  0.42043386  0.25475320    -0.83000
C161        C  0.35117489  0.40897973  0.24120332     1.12100
O162        O  0.24272430  0.24118116  0.27975967    -0.96100
Zr163      Zr  0.26880369  0.30535014  0.28314501     1.88900
O164        O  0.26944306  0.39233830  0.27389996    -0.72800
O165        O  0.39166814  0.35385700  0.23906785    -0.52000
O166        O  0.26314902  0.28925575  0.24876689    -0.96700
O167        O  0.20960115  0.27302186  0.29743885    -0.53900
O168        O  0.23714875  0.33247267  0.26904843    -0.73300
C169        C  0.24188968  0.36398335  0.26813979     0.99100
O170        O  0.35936559  0.46956047  0.28666618    -0.62100
O171        O  0.30781556  0.36081822  0.36961830    -0.56900
O172        O  0.30320897  0.43517053  0.30970722    -0.93600
O173        O  0.28082688  0.40002274  0.33667203    -0.92000
O174        O  0.40146513  0.43508634  0.35345185    -0.92400
O175        O  0.43009077  0.46500702  0.32090236    -0.91200
C176        C  0.28799838  0.42823782  0.32632296     1.17900
H177        H  0.34922698  0.34427560  0.35108108     0.33800
H178        H  0.39879323  0.42981334  0.28573604     0.44700
H179        H  0.25386196  0.35432341  0.30407097     0.38200
H180        H  0.31851264  0.28387180  0.27725958     0.34700
H181        H  0.47032761  0.43089740  0.32808536     0.26500
H182        H  0.41151173  0.34902934  0.24063210     0.32400
H183        H  0.23853287  0.28277897  0.24521915     0.38300
H184        H  0.42378313  0.43903691  0.35960754     0.32800
H185        H  0.29364516  0.37143585  0.37435322     0.31700
H186        H  0.21507791  0.31425067  0.33729486     0.33400
H187        H  0.20408764  0.29157881  0.30156658     0.32300
H188        H  0.44452804  0.46935741  0.30898334     0.36300
H189        H  0.37161069  0.47743238  0.29939527     0.29100
H190        H  0.33824400  0.23352570  0.32239352     0.33300
H191        H  0.22092159  0.23318663  0.27188585     0.36100
H192        H  0.29730507  0.33746237  0.37621146     0.28700
H193        H  0.37869203  0.47436619  0.27737489     0.41600
H194        H  0.44673202  0.39084389  0.27930414     0.31700
H195        H  0.45704379  0.39427014  0.31776521     0.39300
H196        H  0.21288878  0.26326412  0.30979558     0.31100
H197        H  0.37195185  0.33171727  0.23348953     0.31200
H198        H  0.30913551  0.22748385  0.30670361     0.31500
Zr199      Zr  0.99060993  0.30321997  0.20283127     2.17500
O200        O  0.45118723  0.23870157  0.20025134    -0.50900
O201        O  0.45862476  0.31623271  0.17781288    -0.74100
O202        O  0.43953984  0.27756689  0.22476290    -0.80900
O203        O  0.04781017  0.28156660  0.17650836    -0.82600
O204        O  0.46147862  0.30713815  0.25319290    -0.78200
O205        O  0.49315015  0.27323816  0.17419744    -0.89900
O206        O  0.99228709  0.37531928  0.17069428    -0.75800
O207        O  0.99451821  0.35561538  0.21605608    -0.85300
O208        O  0.03351354  0.34975920  0.18255580    -0.85000
O209        O  0.01301652  0.30581233  0.23522720    -0.71800
O210        O  0.04533655  0.30165977  0.20481492    -0.83900
Zr211      Zr  0.11243020  0.40629517  0.23100877     2.26400
Zr212      Zr  0.01786172  0.35955186  0.24819292     2.06300
Zr213      Zr  0.08752109  0.34809459  0.18439267     2.10000
Zr214      Zr  0.03731151  0.40222546  0.19592958     1.78800
O215        O  0.12534875  0.32666527  0.17114616    -0.92700
O216        O  0.99376166  0.42100650  0.20192081    -0.40500
O217        O  0.09204471  0.40141134  0.19793745    -0.77200
O218        O  0.05872505  0.40890349  0.22901409    -0.95800
O219        O  0.07184488  0.35828021  0.25044700    -0.89200
O220        O  0.10935452  0.35432364  0.21670980    -0.92000
C221        C  0.46684071  0.34356394  0.16711626     1.01800
C222        C  0.01379219  0.26163797  0.17285330     1.14700
C223        C  0.43729589  0.28221808  0.24304000     1.05500
O224        O  0.99691067  0.40204905  0.24649479    -0.94100
O225        O  0.05564469  0.38758436  0.27620704    -0.89900
O226        O  0.11263367  0.42051284  0.26568554    -0.83000
C227        C  0.08872003  0.40914826  0.27909496     1.12100
O228        O  0.03114369  0.24293740  0.24209883    -0.96100
Zr229      Zr  0.06838768  0.30671850  0.23675895     1.88900
O230        O  0.15515098  0.39347544  0.24563183    -0.72800
O231        O  0.99312289  0.35557005  0.28068446    -0.52000
O232        O  0.05884502  0.29384759  0.27147288    -0.96700
O233        O  0.09335030  0.27239670  0.22268064    -0.53900
O234        O  0.12737770  0.33360411  0.25037654    -0.73300
C235        C  0.15426987  0.36498907  0.25123567     0.99100
O236        O  0.14249974  0.47075902  0.23467185    -0.62100
O237        O  0.08537840  0.36315892  0.15045406    -0.56900
O238        O  0.16345096  0.43681117  0.21042656    -0.93600
O239        O  0.15084277  0.40152120  0.18351533    -0.92000
O240        O  0.06757080  0.43443245  0.16651941    -0.92400
O241        O  0.06590619  0.46648985  0.19966432    -0.91200
C242        C  0.17180291  0.42976548  0.19386195     1.17900
H243        H  0.02681839  0.34608658  0.16900149     0.33800
H244        H  0.06243331  0.43093003  0.23457088     0.44700
H245        H  0.13213102  0.35559881  0.21570936     0.38200
H246        H  0.99728154  0.28461625  0.24241370     0.34700
H247        H  0.99419031  0.43404087  0.18999467     0.26500
H248        H  0.96856658  0.35086609  0.27875583     0.32400
H249        H  0.07592440  0.28604362  0.27516607     0.38300
H250        H  0.05026594  0.43942601  0.15990747     0.32800
H251        H  0.11063778  0.37742394  0.14654213     0.31700
H252        H  0.14367374  0.33241841  0.18127221     0.33400
H253        H  0.11797221  0.29024879  0.21900798     0.32300
H254        H  0.09114939  0.47423925  0.20231505     0.36300
H255        H  0.14122909  0.47984351  0.22164777     0.29100
H256        H  0.42705753  0.23471838  0.19756016     0.33300
H257        H  0.04575563  0.23588281  0.24994278     0.36100
H258        H  0.07644494  0.34039406  0.14337993     0.28700
H259        H  0.12642194  0.47537032  0.24281801     0.41600
H260        H  0.97303665  0.38874379  0.24054151     0.31700
H261        H  0.97035038  0.39891384  0.20151743     0.39300
H262        H  0.08085851  0.26361189  0.21008548     0.31100
H263        H  0.99035858  0.33345913  0.28650563     0.31200
H264        H  0.44997143  0.22877323  0.21339932     0.31500
Zr265      Zr  0.32035988  0.47416455  0.15069157     2.17500
O266        O  0.25582832  0.43557875  0.15193126    -0.50900
O267        O  0.33333682  0.44244165  0.17597954    -0.74100
O268        O  0.29609094  0.42264406  0.12896133    -0.80900
O269        O  0.29814250  0.03071165  0.17775893    -0.82600
O270        O  0.32497808  0.44479092  0.10040548    -0.78200
O271        O  0.28944152  0.47506120  0.17902201    -0.89900
O272        O  0.39222881  0.47574682  0.18311197    -0.75800
O273        O  0.37234858  0.97805510  0.13748808    -0.85300
O274        O  0.36623441  0.01673325  0.17110319    -0.85000
O275        O  0.32259570  0.99666229  0.11827250    -0.71800
O276        O  0.31819730  0.02872240  0.14888911    -0.83900
Zr277      Zr  0.42305604  0.09583392  0.12301567     2.26400
Zr278      Zr  0.37636233  0.00160145  0.10539303     2.06300
Zr279      Zr  0.36450997  0.07073319  0.16948763     2.10000
Zr280      Zr  0.41883897  0.02060909  0.15781301     1.78800
O281        O  0.34359915  0.11026813  0.18068032    -0.92700
O282        O  0.43696654  0.97724858  0.14979013    -0.40500
O283        O  0.41788310  0.07528060  0.15602592    -0.77200
O284        O  0.42561135  0.04217195  0.12477952    -0.95800
O285        O  0.37506411  0.05556094  0.10339257    -0.89200
O286        O  0.37103899  0.09274182  0.13722398    -0.92000
C287        C  0.36065540  0.45034972  0.18665484     1.01800
C288        C  0.27803877  0.49658604  0.18103854     1.14700
C289        C  0.30048728  0.42043412  0.11065160     1.05500
O290        O  0.41899662  0.98077624  0.10588298    -0.94100
O291        O  0.40450218  0.03977776  0.07754059    -0.89900
O292        O  0.43734251  0.09659798  0.08834047    -0.83000
C293        C  0.42609194  0.07289643  0.07481402     1.12100
O294        O  0.25970405  0.01448308  0.11197790    -0.96100
Zr295      Zr  0.32352431  0.05218447  0.11701473     1.88900
O296        O  0.41148366  0.13919789  0.10843835    -0.72800
O297        O  0.37097818  0.97760293  0.07255633    -0.52000
O298        O  0.30962154  0.04296871  0.08238443    -0.96700
O299        O  0.28908012  0.07694708  0.13122323    -0.53900
O300        O  0.35160753  0.11165860  0.10361565    -0.73300
C301        C  0.38311532  0.13847679  0.10279772     0.99100
O302        O  0.48753861  0.12480944  0.12001356    -0.62100
O303        O  0.37791898  0.06781713  0.20364870    -0.56900
O304        O  0.45304859  0.14716133  0.14342298    -0.93600
O305        O  0.41874607  0.13364979  0.17081043    -0.92000
O306        O  0.45193248  0.04924791  0.18733599    -0.92400
O307        O  0.48345857  0.05048546  0.15520173    -0.91200
C308        C  0.44656218  0.15500430  0.16027762     1.17900
H309        H  0.36239945  0.00982647  0.18462117     0.33800
H310        H  0.44758658  0.04590020  0.11915543     0.44700
H311        H  0.37243028  0.11556758  0.13825532     0.38200
H312        H  0.30200528  0.48081171  0.11104531     0.34700
H313        H  0.45026663  0.97671259  0.16138114     0.26500
H314        H  0.36667753  0.95310888  0.07402990     0.32400
H315        H  0.30302630  0.06100767  0.07881168     0.38300
H316        H  0.45934665  0.03272497  0.19261298     0.32800
H317        H  0.40061275  0.09009724  0.20597301     0.31700
H318        H  0.33063658  0.11242312  0.16938003     0.33400
H319        H  0.30642350  0.10239866  0.13341360     0.32300
H320        H  0.48840834  0.04405054  0.14220627     0.36300
H321        H  0.49559224  0.12037934  0.13266432     0.29100
H322        H  0.25124804  0.41132213  0.15485311     0.33300
H323        H  0.25220547  0.02906457  0.10444935     0.36100
H324        H  0.35997007  0.07098509  0.21088087     0.28700
H325        H  0.49195529  0.11013485  0.11062428     0.41600
H326        H  0.40787085  0.45848600  0.11251898     0.31700
H327        H  0.41418093  0.45323632  0.15056138     0.39300
H328        H  0.28284476  0.06662983  0.14446798     0.31100
H329        H  0.34849652  0.97474364  0.06721819     0.31200
H330        H  0.24698898  0.43448002  0.13850132     0.31500
Zr331      Zr  0.32070548  0.32739277  0.03609624     2.17500
O332        O  0.25665932  0.30370042  0.03284106    -0.50900
O333        O  0.33484337  0.37334813  0.01143490    -0.74100
O334        O  0.29508334  0.35281889  0.05826729    -0.80900
O335        O  0.29910546  0.24843792  0.00954492    -0.82600
O336        O  0.32451363  0.36011986  0.08671843    -0.78200
O337        O  0.29089491  0.29545323  0.00747241    -0.89900
O338        O  0.39349580  0.39771455  0.00404982    -0.75800
O339        O  0.37299844  0.37559142  0.04958359    -0.85300
O340        O  0.36750079  0.33128619  0.01588007    -0.85000
O341        O  0.32296162  0.30711780  0.06845985    -0.71800
O342        O  0.31895597  0.27094743  0.03793031    -0.83900
Zr343      Zr  0.42360903  0.30824638  0.06424219     2.26400
Zr344      Zr  0.37674065  0.35574447  0.08164880     2.06300
Zr345      Zr  0.36562768  0.27545701  0.01755134     2.10000
Zr346      Zr  0.41991833  0.37976236  0.02957369     1.78800
O347        O  0.34525864  0.21610965  0.00476326    -0.92700
O348        O  0.43783347  0.44127997  0.03743176    -0.40500
O349        O  0.41892871  0.32410974  0.03126751    -0.77200
O350        O  0.42627401  0.36452278  0.06252911    -0.95800
O351        O  0.37540364  0.30044725  0.08375903    -0.89200
O352        O  0.37168224  0.25945872  0.04984825    -0.92000
C353        C  0.36206425  0.39195594  0.00057232     1.01800
C354        C  0.27897653  0.26236765  0.00603070     1.14700
C355        C  0.29973837  0.35962945  0.07656061     1.05500
O356        O  0.41911340  0.41919607  0.08083358    -0.94100
O357        O  0.40482101  0.34559472  0.10953714    -0.89900
O358        O  0.43910871  0.32326943  0.09868208    -0.83000
C359        C  0.42720914  0.33501853  0.11223839     1.12100
O360        O  0.25981430  0.22544755  0.07440257    -0.96100
Zr361      Zr  0.32387271  0.25258605  0.06982872     1.88900
O362        O  0.41107090  0.25342826  0.07940923    -0.72800
O363        O  0.37265703  0.37645595  0.11415829    -0.52000
O364        O  0.30883831  0.24886828  0.10425575    -0.96700
O365        O  0.29014432  0.19304286  0.05597536    -0.53900
O366        O  0.35114299  0.22100247  0.08385672    -0.73300
C367        C  0.38267587  0.22586700  0.08504348     0.99100
O368        O  0.48813680  0.34221395  0.06764519    -0.62100
O369        O  0.37912717  0.29231717  0.98345860    -0.56900
O370        O  0.45358728  0.28688674  0.04373443    -0.93600
O371        O  0.41944182  0.26613545  0.01630113    -0.92000
O372        O  0.45485587  0.38307300  0.00108572    -0.92400
O373        O  0.48408885  0.41706091  0.03304487    -0.91200
C374        C  0.44717886  0.27251958  0.02688805     1.17900
H375        H  0.36386201  0.33436378  0.00233189     0.33800
H376        H  0.44825551  0.38276285  0.06818307     0.44700
H377        H  0.37308211  0.23801003  0.04893810     0.38200
H378        H  0.30176661  0.30171235  0.07564767     0.34700
H379        H  0.45001880  0.45491896  0.02557809     0.26500
H380        H  0.36826875  0.39653015  0.11228017     0.32400
H381        H  0.30389806  0.22498398  0.10837915     0.38300
H382        H  0.45708380  0.40343827  0.99346781     0.32800
H383        H  0.39064032  0.27893548  0.97879593     0.31700
H384        H  0.34248386  0.20153953  0.01642229     0.33400
H385        H  0.30798309  0.18576351  0.05323645     0.32300
H386        H  0.49249141  0.40040153  0.03658360     0.36300
H387        H  0.49705550  0.35244485  0.05458316     0.29100
H388        H  0.25321672  0.32421681  0.03026924     0.33300
H389        H  0.25255096  0.20351421  0.08202008     0.36100
H390        H  0.35563541  0.28075209  0.97694801     0.28700
H391        H  0.49304519  0.36300508  0.07578378     0.41600
H392        H  0.40544677  0.42999338  0.07566051     0.31700
H393        H  0.41547575  0.44211198  0.03792508     0.39300
H394        H  0.28264013  0.19659892  0.04294880     0.31100
H395        H  0.35041731  0.35724603  0.11992973     0.31200
H396        H  0.24611246  0.29461758  0.04583357     0.31500
Zr397      Zr  0.18291444  0.18819190  0.81748136     2.17500
O398        O  0.20875012  0.25272197  0.81896994    -0.50900
O399        O  0.13823546  0.17542319  0.84285704    -0.74100
O400        O  0.15687061  0.21328657  0.79534165    -0.80900
O401        O  0.26226616  0.21019099  0.84419485    -0.82600
O402        O  0.14726683  0.18203346  0.76735814    -0.78200
O403        O  0.21549051  0.21902580  0.84573920    -0.89900
O404        O  0.11313511  0.11680964  0.85048426    -0.75800
O405        O  0.13396412  0.13545594  0.80479313    -0.85300
O406        O  0.17960992  0.14219599  0.83813233    -0.85000
O407        O  0.20161515  0.18431938  0.78499821    -0.71800
O408        O  0.23922835  0.18965179  0.81544739    -0.83900
Zr409      Zr  0.20105391  0.08439934  0.78996998     2.26400
Zr410      Zr  0.15244765  0.13022553  0.77260279     2.06300
Zr411      Zr  0.23519744  0.14365519  0.83622742     2.10000
Zr412      Zr  0.13062824  0.08936141  0.82524237     1.78800
O413        O  0.29521896  0.16348306  0.84777455    -0.92700
O414        O  0.06899403  0.07116479  0.81751036    -0.40500
O415        O  0.18619773  0.09032864  0.82297769    -0.77200
O416        O  0.14466264  0.08152438  0.79219496    -0.95800
O417        O  0.20786332  0.13184151  0.77020312    -0.89200
O418        O  0.25012324  0.13673072  0.80382761    -0.92000
C419        C  0.11923922  0.14840818  0.85381104     1.01800
C420        C  0.24850156  0.23057250  0.84744773     1.14700
C421        C  0.14881298  0.20761970  0.77721225     1.05500
O422        O  0.08958618  0.08551622  0.77353305    -0.94100
O423        O  0.16388065  0.10364646  0.74448503    -0.89900
O424        O  0.18657348  0.06965766  0.75529261    -0.83000
C425        C  0.17475676  0.08151440  0.74172410     1.12100
O426        O  0.28096685  0.24741119  0.77852737    -0.96100
Zr427      Zr  0.25629482  0.18371908  0.78337238     1.88900
O428        O  0.25587623  0.09618621  0.77492402    -0.72800
O429        O  0.12955432  0.13355901  0.74058389    -0.52000
O430        O  0.25874846  0.19692005  0.74872609    -0.96700
O431        O  0.31671744  0.21872808  0.79592226    -0.53900
O432        O  0.28760924  0.15587792  0.76950110    -0.73300
C433        C  0.28313319  0.12443470  0.76880555     0.99100
O434        O  0.16657468  0.01976806  0.78780508    -0.62100
O435        O  0.21894228  0.13090682  0.87046058    -0.56900
O436        O  0.22198338  0.05439230  0.81074123    -0.93600
O437        O  0.24339148  0.08917557  0.83793510    -0.92000
O438        O  0.12778414  0.05672651  0.85465479    -0.92400
O439        O  0.09568612  0.02466585  0.82417554    -0.91200
C440        C  0.23658266  0.06109999  0.82753773     1.17900
H441        H  0.17686955  0.14636607  0.85164685     0.33800
H442        H  0.12644990  0.05924494  0.78684437     0.44700
H443        H  0.27161753  0.13540154  0.80463641     0.38200
H444        H  0.20655524  0.20508767  0.77752880     0.34700
H445        H  0.05535238  0.05804194  0.82917737     0.26500
H446        H  0.10939650  0.13767127  0.74289575     0.32400
H447        H  0.28233576  0.20129511  0.74437556     0.38300
H448        H  0.10800740  0.05567309  0.86236065     0.32800
H449        H  0.19976533  0.10571711  0.87060714     0.31700
H450        H  0.30896268  0.16579729  0.83582016     0.33400
H451        H  0.32318411  0.20100664  0.80035884     0.32300
H452        H  0.08540810  0.01872326  0.81091071     0.36300
H453        H  0.15091364  0.01249133  0.79939390     0.29100
H454        H  0.18899660  0.25734904  0.82158934     0.33300
H455        H  0.30123222  0.25481933  0.76949008     0.36100
H456        H  0.23947246  0.13070545  0.87659763     0.28700
H457        H  0.15015961  0.01450463  0.77669002     0.41600
H458        H  0.07766519  0.09822827  0.77854648     0.31700
H459        H  0.06781664  0.09334952  0.81762477     0.39300
H460        H  0.31425656  0.22953679  0.80810068     0.31100
H461        H  0.14822231  0.15573433  0.73446791     0.31200
H462        H  0.21719320  0.26182482  0.80565989     0.31500
Zr463      Zr  0.03482950  0.18743928  0.70249717     2.17500
O464        O  0.07465116  0.25167483  0.70002332    -0.50900
O465        O  0.06648022  0.17370683  0.67742391    -0.74100
O466        O  0.08592796  0.21293284  0.72465386    -0.80900
O467        O  0.47801060  0.21026664  0.67611369    -0.82600
O468        O  0.06451035  0.18178354  0.75264173    -0.78200
O469        O  0.03300126  0.21919331  0.67470987    -0.89900
O470        O  0.03185211  0.11542139  0.66930489    -0.75800
O471        O  0.03049492  0.13449636  0.71515400    -0.85300
O472        O  0.49274054  0.14200579  0.68199886    -0.85000
O473        O  0.51279814  0.18467968  0.73512460    -0.71800
O474        O  0.48076198  0.18959429  0.70471605    -0.83900
Zr475      Zr  0.41338226  0.08451569  0.73005808     2.26400
Zr476      Zr  0.50769210  0.13047983  0.74759104     2.06300
Zr477      Zr  0.43864736  0.14367034  0.68392244     2.10000
Zr478      Zr  0.48883641  0.08916480  0.69498788     1.78800
O479        O  0.39874032  0.16413746  0.67273855    -0.92700
O480        O  0.53375552  0.07252228  0.70191343    -0.40500
O481        O  0.43425198  0.09026000  0.69709707    -0.77200
O482        O  0.46693649  0.08165851  0.72800674    -0.95800
O483        O  0.45382540  0.13202753  0.74991762    -0.89200
O484        O  0.41664977  0.13679613  0.71623036    -0.92000
C485        C  0.05787337  0.14681640  0.66623835     1.01800
C486        C  0.01136350  0.23056150  0.67310162     1.14700
C487        C  0.08844409  0.20736414  0.74277133     1.05500
O488        O  0.52713943  0.08674917  0.74614549    -0.94100
O489        O  0.46932078  0.10332128  0.77546589    -0.89900
O490        O  0.41271818  0.06933829  0.76457481    -0.83000
C491        C  0.43634160  0.08114030  0.77814463     1.12100
O492        O  0.49444207  0.24780807  0.74172138    -0.96100
Zr493      Zr  0.45734382  0.18390086  0.73664723     1.88900
O494        O  0.37029182  0.09664029  0.74472269    -0.72800
O495        O  0.53309354  0.13262314  0.77969665    -0.52000
O496        O  0.46750733  0.19805700  0.77124080    -0.96700
O497        O  0.43158892  0.21763579  0.72274581    -0.53900
O498        O  0.39802686  0.15628966  0.75023499    -0.73300
C499        C  0.37106083  0.12485198  0.75073510     0.99100
O500        O  0.38243254  0.01996455  0.73306224    -0.62100
O501        O  0.44128368  0.13007847  0.64974537    -0.56900
O502        O  0.36269483  0.05433828  0.70915237    -0.93600
O503        O  0.37568564  0.08952697  0.68220276    -0.92000
O504        O  0.45828574  0.05601388  0.66581875    -0.92400
O505        O  0.45988353  0.02459971  0.69744287    -0.91200
C506        C  0.35458147  0.06123669  0.69248390     1.17900
H507        H  0.49963098  0.14610920  0.66848167     0.30200
H508        H  0.46294049  0.05945401  0.73343037     0.44700
H509        H  0.39386898  0.13551902  0.71526749     0.38200
H510        H  0.02846436  0.20499684  0.74246512     0.34700
H511        H  0.53279405  0.05781478  0.69064722     0.26500
H512        H  0.55787557  0.13819835  0.77751664     0.32400
H513        H  0.44960013  0.20472989  0.77500462     0.38300
H514        H  0.47644796  0.05343178  0.65842933     0.32800
H515        H  0.43331564  0.10436845  0.64964048     0.31700
H516        H  0.38961136  0.16912595  0.68484261     0.33400
H517        H  0.40611021  0.20009989  0.72080470     0.32300
H518        H  0.46798305  0.01981432  0.70997424     0.36300
H519        H  0.38592797  0.01146260  0.72031398     0.29100
H520        H  0.09888501  0.25565760  0.69771639     0.33300
H521        H  0.47991378  0.25492454  0.74960109     0.36100
H522        H  0.42156412  0.13168249  0.64352353     0.28700
H523        H  0.39696486  0.01487613  0.74219791     0.41600
H524        H  0.04839061  0.09675736  0.73855266     0.31700
H525        H  0.05467145  0.09239940  0.70043057     0.39300
H526        H  0.44142852  0.22369321  0.70939476     0.31100
H527        H  0.03575944  0.15678006  0.78565115     0.31200
H528        H  0.07531134  0.26168622  0.71308753     0.31500
Zr529      Zr  0.03705635  0.32563436  0.48360843     2.17500
O530        O  0.07634406  0.30047183  0.48559948    -0.50900
O531        O  0.06890515  0.37088840  0.50863042    -0.74100
O532        O  0.08850795  0.35192947  0.46186931    -0.80900
O533        O  0.47992619  0.24635975  0.50997218    -0.82600
O534        O  0.06695296  0.36071161  0.43362462    -0.78200
O535        O  0.03531257  0.29355393  0.51202321    -0.89900
O536        O  0.03481730  0.39541808  0.51626356    -0.75800
O537        O  0.03297187  0.37427905  0.47081719    -0.85300
O538        O  0.49408980  0.32891983  0.50405100    -0.85000
O539        O  0.51517122  0.30690314  0.45100755    -0.71800
O540        O  0.48284988  0.26966005  0.48132506    -0.83900
Zr541      Zr  0.41525528  0.30700931  0.45569685     2.26400
Zr542      Zr  0.50998402  0.35593811  0.43853469     2.06300
Zr543      Zr  0.44028887  0.27310880  0.50191467     2.10000
Zr544      Zr  0.48972004  0.37759838  0.49105536     1.78800
O545        O  0.40080832  0.21268568  0.51304833    -0.92700
O546        O  0.53263484  0.43988164  0.48466624    -0.40500
O547        O  0.43526990  0.32193960  0.48882979    -0.77200
O548        O  0.46864695  0.36348910  0.45793461    -0.95800
O549        O  0.45626940  0.30045648  0.43603266    -0.89200
O550        O  0.41878330  0.25809767  0.46952753    -0.92000
C551        C  0.06052406  0.38963060  0.51956881     1.01800
C552        C  0.01418003  0.26047831  0.51353830     1.14700
C553        C  0.09100147  0.35954406  0.44369918     1.05500
O554        O  0.53035228  0.41934731  0.43913684    -0.94100
O555        O  0.47197865  0.34638385  0.41064125    -0.89900
O556        O  0.41494440  0.32157395  0.42119795    -0.83000
C557        C  0.43880958  0.33449332  0.40779342     1.12100
O558        O  0.49687448  0.22513326  0.44424641    -0.96100
Zr559      Zr  0.45997110  0.25219145  0.44928960     1.88900
O560        O  0.37246861  0.25173006  0.44100312    -0.72800
O561        O  0.53495930  0.37594919  0.40599372    -0.52000
O562        O  0.46976834  0.24866902  0.41458522    -0.96700
O563        O  0.43602350  0.19325302  0.46359351    -0.53900
O564        O  0.40070787  0.22018125  0.43575835    -0.73300
C565        C  0.37360042  0.22441480  0.43510048     0.99100
O566        O  0.38430648  0.34057284  0.45206966    -0.62100
O567        O  0.44185609  0.28779956  0.53626843    -0.56900
O568        O  0.36404191  0.28555462  0.47624617    -0.93600
O569        O  0.37723616  0.26381041  0.50333096    -0.92000
O570        O  0.45734245  0.37837514  0.51985915    -0.92400
O571        O  0.46257252  0.41466676  0.48743260    -0.91200
C572        C  0.35600087  0.27063945  0.49293586     1.17900
H573        H  0.50072935  0.33156052  0.51761035     0.33800
H574        H  0.46476956  0.38181739  0.45253418     0.44700
H575        H  0.39611431  0.23648751  0.47046953     0.38200
H576        H  0.03082394  0.30159974  0.44371545     0.34700
H577        H  0.53245985  0.45268063  0.49657232     0.26500
H578        H  0.55960113  0.39572124  0.40773506     0.32400
H579        H  0.45171902  0.22422953  0.41070652     0.38300
H580        H  0.47534396  0.39774206  0.52808678     0.32800
H581        H  0.43416795  0.30576001  0.53653602     0.31700
H582        H  0.39736724  0.19769064  0.50147595     0.33400
H583        H  0.41027990  0.18437899  0.46518297     0.32300
H584        H  0.43762517  0.39794784  0.48373164     0.36300
H585        H  0.38624265  0.35157642  0.46497729     0.29100
H586        H  0.10060582  0.32041356  0.48822318     0.33300
H587        H  0.48285090  0.20434066  0.43569679     0.36100
H588        H  0.42174910  0.26633103  0.54211833     0.28700
H589        H  0.39968110  0.36086392  0.44351830     0.41600
H590        H  0.05441721  0.43000924  0.44538641     0.31700
H591        H  0.05717213  0.44045551  0.48461515     0.39300
H592        H  0.44543537  0.19760432  0.47706089     0.31100
H593        H  0.03848734  0.35788579  0.40041650     0.31200
H594        H  0.07722101  0.29179946  0.47237656     0.31500
Zr595      Zr  0.18407201  0.47287034  0.36924072     2.17500
O596        O  0.20703141  0.43187235  0.36582320    -0.50900
O597        O  0.13797859  0.44070141  0.34475039    -0.74100
O598        O  0.15924908  0.42214673  0.39154445    -0.80900
O599        O  0.26287837  0.02949957  0.34267405    -0.82600
O600        O  0.15006022  0.44383815  0.41961834    -0.78200
O601        O  0.21626193  0.47468368  0.34082062    -0.89900
O602        O  0.11391179  0.47514935  0.33707809    -0.75800
O603        O  0.13516630  0.97662433  0.38234039    -0.85300
O604        O  0.18035243  0.01536569  0.34893124    -0.85000
O605        O  0.20339834  0.99480861  0.40173154    -0.71800
O606        O  0.24006510  0.02688244  0.37113951    -0.83900
Zr607      Zr  0.20331456  0.09444340  0.39738579     2.26400
Zr608      Zr  0.15451513  0.99991898  0.41452681     2.06300
Zr609      Zr  0.23615509  0.06925032  0.35066376     2.10000
Zr610      Zr  0.13198758  0.01981767  0.36217762     1.78800
O611        O  0.29584420  0.10902663  0.33855561    -0.92700
O612        O  0.06975396  0.97731625  0.36899436    -0.40500
O613        O  0.18769591  0.07425484  0.36430989    -0.77200
O614        O  0.14671096  0.04119591  0.39526332    -0.95800
O615        O  0.21021458  0.05344469  0.41679297    -0.89200
O616        O  0.25197026  0.09103987  0.38300799    -0.92000
C617        C  0.11934014  0.44919457  0.33383182     1.01800
C618        C  0.24930456  0.49585278  0.33914688     1.14700
C619        C  0.15151761  0.41980594  0.40969625     1.05500
O620        O  0.09117650  0.97978148  0.41343290    -0.94100
O621        O  0.16360476  0.03753866  0.44248372    -0.89900
O622        O  0.18976395  0.09478085  0.43215952    -0.83000
C623        C  0.17616168  0.07075030  0.44547332     1.12100
O624        O  0.28427782  0.01181722  0.40693440    -0.96100
Zr625      Zr  0.25830582  0.04992060  0.40305083     1.88900
O626        O  0.25875112  0.13708004  0.41188740    -0.72800
O627        O  0.13479286  0.97534631  0.44718487    -0.52000
O628        O  0.26296726  0.04031187  0.43760212    -0.96700
O629        O  0.31741838  0.07412065  0.38885457    -0.53900
O630        O  0.29051625  0.10899529  0.41692100    -0.73300
C631        C  0.28615420  0.13604165  0.41768422     0.99100
O632        O  0.16949460  0.12501572  0.40140198    -0.62100
O633        O  0.21924180  0.06558997  0.31653225    -0.56900
O634        O  0.22426326  0.14554346  0.37674551    -0.93600
O635        O  0.24509051  0.13218707  0.34932069    -0.92000
O636        O  0.13105250  0.05012016  0.33252217    -0.92400
O637        O  0.09621013  0.04850230  0.36506190    -0.91200
C638        C  0.23859373  0.15348178  0.35989173     1.17900
H639        H  0.17727404  0.00850604  0.33540142     0.33800
H640        H  0.12848904  0.04516336  0.40074769     0.44700
H641        H  0.27353973  0.11374608  0.38205220     0.38200
H642        H  0.20917193  0.47974651  0.40899672     0.34700
H643        H  0.05718897  0.97521557  0.35659340     0.26500
H644        H  0.11428765  0.95107988  0.44549913     0.32400
H645        H  0.24188112  0.01687634  0.44039410     0.38300
H646        H  0.10776702  0.03395599  0.32643169     0.32800
H647        H  0.22801247  0.09054428  0.31261252     0.31700
H648        H  0.31073604  0.11773488  0.35042363     0.33400
H649        H  0.32504286  0.09921563  0.38585089     0.32300
H650        H  0.11372563  0.07417848  0.36611805     0.36300
H651        H  0.15879845  0.12360310  0.38846004     0.29100
H652        H  0.18631144  0.40793068  0.36351736     0.33300
H653        H  0.30434615  0.02453356  0.41611678     0.36100
H654        H  0.23493660  0.05874950  0.30961641     0.28700
H655        H  0.14901376  0.10915305  0.40971773     0.41600
H656        H  0.08069993  0.45738677  0.40743700     0.31700
H657        H  0.06853639  0.45542086  0.37037646     0.39300
H658        H  0.31337375  0.06255316  0.37594085     0.31100
H659        H  0.15396081  0.97193046  0.45270754     0.31200
H660        H  0.21670197  0.43065953  0.37868810     0.31500
Zr661      Zr  0.20552434  0.01754172  0.65091584     2.17500
O662        O  0.26987542  0.05680067  0.65354889    -0.50900
O663        O  0.19187741  0.04968016  0.67574994    -0.74100
O664        O  0.23160984  0.06882857  0.62908416    -0.80900
O665        O  0.22777073  0.46002854  0.67645257    -0.82600
O666        O  0.20013406  0.04796411  0.60110132    -0.78200
O667        O  0.23617265  0.01504146  0.67906913    -0.89900
O668        O  0.13360256  0.01500573  0.68380961    -0.75800
O669        O  0.15247040  0.51368428  0.63807347    -0.85300
O670        O  0.15922851  0.47468930  0.67131801    -0.85000
O671        O  0.20169723  0.49518278  0.61815184    -0.71800
O672        O  0.20683751  0.46286754  0.64845793    -0.83900
Zr673      Zr  0.10167176  0.39559529  0.62268136     2.26400
Zr674      Zr  0.14749605  0.49034212  0.60584749     2.06300
Zr675      Zr  0.16087071  0.42064331  0.66907184     2.10000
Zr676      Zr  0.10630005  0.47054993  0.65827748     1.78800
O677        O  0.18095611  0.38054996  0.68041871    -0.92700
O678        O  0.08733027  0.51376951  0.65174720    -0.40500
O679        O  0.10729106  0.41597013  0.65582487    -0.77200
O680        O  0.09868336  0.44905744  0.62518953    -0.95800
O681        O  0.14934151  0.43666370  0.60318744    -0.89200
O682        O  0.15394070  0.39893318  0.63666404    -0.92000
C683        C  0.16499399  0.04104108  0.68693204     1.01800
C684        C  0.24841108  0.49410623  0.67975381     1.14700
C685        C  0.22593587  0.07161214  0.61103165     1.05500
O686        O  0.10387303  0.50989210  0.60777453    -0.94100
O687        O  0.12016568  0.45271953  0.57767860    -0.89900
O688        O  0.08796515  0.39549179  0.58790296    -0.83000
C689        C  0.09914788  0.41959102  0.57460009     1.12100
O690        O  0.26533508  0.47807078  0.61353140    -0.96100
Zr691      Zr  0.20112808  0.43988568  0.61646078     1.88900
O692        O  0.11424406  0.35280464  0.60791930    -0.72800
O693        O  0.14976473  0.51651833  0.57400617    -0.52000
O694        O  0.21669840  0.45054464  0.58205791    -0.96700
O695        O  0.23327318  0.41199695  0.62984780    -0.53900
O696        O  0.17383315  0.38129518  0.60210133    -0.73300
C697        C  0.14259080  0.35407838  0.60169244     0.99100
O698        O  0.03725161  0.36594896  0.61878752    -0.62100
O699        O  0.14856583  0.42361035  0.70343191    -0.56900
O700        O  0.07157558  0.34450789  0.64334052    -0.93600
O701        O  0.10635898  0.35796378  0.67054548    -0.92000
O702        O  0.07248414  0.43876983  0.68701026    -0.92400
O703        O  0.04202130  0.44343285  0.65568819    -0.91200
C704        C  0.07827263  0.33667963  0.66015682     1.17900
H705        H  0.16326002  0.48145865  0.68485938     0.33800
H706        H  0.07643755  0.44521436  0.61988777     0.44700
H707        H  0.15271671  0.37616637  0.63747875     0.38200
H708        H  0.22255572  0.51089839  0.61071705     0.34700
H709        H  0.07718142  0.51603715  0.66422452     0.26500
H710        H  0.15518565  0.54117163  0.57646594     0.32400
H711        H  0.22501515  0.43374627  0.57864578     0.38300
H712        H  0.08138428  0.45654437  0.69764490     0.32800
H713        H  0.12681644  0.40063511  0.70610803     0.31700
H714        H  0.18509914  0.37065281  0.66835267     0.33400
H715        H  0.21533396  0.38651308  0.63126007     0.32300
H716        H  0.03373228  0.41870613  0.65149147     0.36300
H717        H  0.02823277  0.36834991  0.63161244     0.29100
H718        H  0.27414652  0.08109272  0.65602468     0.33300
H719        H  0.27325801  0.46540081  0.60466884     0.36100
H720        H  0.16769430  0.42204733  0.71040884     0.28700
H721        H  0.03290676  0.38153800  0.61007024     0.41600
H722        H  0.11731300  0.53458379  0.61264466     0.31700
H723        H  0.10955061  0.53683947  0.65024776     0.39300
H724        H  0.23896240  0.42088395  0.64340105     0.31100
H725        H  0.17123975  0.51902022  0.56747568     0.31200
H726        H  0.27993088  0.05758028  0.64048654     0.31500
Zr727      Zr  0.20697281  0.16532470  0.53630603     2.17500
O728        O  0.27100431  0.18837105  0.53349144    -0.50900
O729        O  0.19378197  0.12015268  0.51122747    -0.74100
O730        O  0.23228000  0.13997618  0.55868447    -0.80900
O731        O  0.22924617  0.24463241  0.50915376    -0.82600
O732        O  0.20066391  0.12987193  0.58653815    -0.78200
O733        O  0.23908994  0.19837040  0.50851270    -0.89900
O734        O  0.13516622  0.09517700  0.50365225    -0.75800
O735        O  0.15418672  0.11679281  0.54917263    -0.85300
O736        O  0.16103079  0.16189506  0.51555788    -0.85000
O737        O  0.20356326  0.18481102  0.56870621    -0.71800
O738        O  0.20874757  0.22177212  0.53804494    -0.83900
Zr739      Zr  0.10354308  0.18429715  0.56350300     2.26400
Zr740      Zr  0.14942043  0.13599425  0.58128492     2.06300
Zr741      Zr  0.16276548  0.21765822  0.51719339     2.10000
Zr742      Zr  0.10808225  0.11337384  0.52865938     1.78800
O743        O  0.18361893  0.27726017  0.50467591    -0.92700
O744        O  0.08901127  0.05124349  0.53543009    -0.40500
O745        O  0.10910573  0.16901676  0.53051173    -0.77200
O746        O  0.10065692  0.12788911  0.56164697    -0.95800
O747        O  0.15103092  0.19140503  0.58334015    -0.89200
O748        O  0.15586163  0.23299531  0.54947131    -0.92000
C749        C  0.16669347  0.10112354  0.50033748     1.01800
C750        C  0.24995252  0.23113175  0.50624494     1.14700
C751        C  0.22643170  0.13170151  0.57675131     1.05500
O752        O  0.10600112  0.07274035  0.58123541    -0.94100
O753        O  0.11963677  0.14449720  0.60885003    -0.89900
O754        O  0.08872884  0.17066835  0.59816395    -0.83000
C755        C  0.09880850  0.15695130  0.61160172     1.12100
O756        O  0.26655353  0.26437277  0.57496206    -0.96100
Zr757      Zr  0.20287374  0.23947550  0.56996429     1.88900
O758        O  0.11565129  0.23933121  0.57829328    -0.72800
O759        O  0.15578171  0.11933859  0.61444851    -0.52000
O760        O  0.21460895  0.24248867  0.60481036    -0.96700
O761        O  0.23732104  0.29914860  0.55645028    -0.53900
O762        O  0.17544820  0.27150392  0.58337904    -0.73300
C763        C  0.14393545  0.26685938  0.58412257     0.99100
O764        O  0.03900217  0.14961697  0.56632755    -0.62100
O765        O  0.14919395  0.20035029  0.48312280    -0.56900
O766        O  0.07416544  0.20597662  0.54280120    -0.93600
O767        O  0.10937197  0.22771025  0.51579820    -0.92000
O768        O  0.07647552  0.11214716  0.49912846    -0.92400
O769        O  0.04346768  0.07744365  0.53041814    -0.91200
C770        C  0.08128421  0.22103823  0.52614290     1.17900
H771        H  0.16513194  0.15892464  0.50206523     0.33800
H772        H  0.07849605  0.10968211  0.56710185     0.44700
H773        H  0.15460558  0.25450831  0.54850192     0.38200
H774        H  0.22429584  0.18970094  0.57621536     0.34700
H775        H  0.07746602  0.03847478  0.52324014     0.26500
H776        H  0.15845688  0.09807016  0.61339701     0.32400
H777        H  0.22366707  0.26766394  0.60837134     0.38300
H778        H  0.07108524  0.08972062  0.49252728     0.32800
H779        H  0.13097937  0.20673865  0.47960285     0.31700
H780        H  0.19251804  0.29275673  0.51631385     0.33400
H781        H  0.21948800  0.30596730  0.55277137     0.32300
H782        H  0.03815117  0.06674980  0.54358862     0.36300
H783        H  0.03091413  0.13734525  0.55361936     0.29100
H784        H  0.27431698  0.16772135  0.53108049     0.33300
H785        H  0.27395707  0.28515693  0.58360932     0.36100
H786        H  0.17076832  0.21766227  0.47598070     0.28700
H787        H  0.03425011  0.13032370  0.57562467     0.41600
H788        H  0.11587586  0.06191143  0.57237800     0.31700
H789        H  0.11119099  0.05010595  0.53615256     0.39300
H790        H  0.24636161  0.29580510  0.54384909     0.31100
H791        H  0.17904115  0.13849838  0.61925753     0.31200
H792        H  0.28145963  0.19762417  0.54649079     0.31500
C793        C  0.24826013  0.12196403  0.58753505    -0.12800
C794        C  0.24809510  0.10322821  0.60040373    -0.14400
C795        C  0.14045955  0.29577025  0.59068999    -0.12800
C796        C  0.13982102  0.32198778  0.59512817    -0.14400
C797        C  0.17508545  0.08120927  0.46529954    -0.12800
C798        C  0.17238580  0.08875695  0.48194578    -0.14400
C799        C  0.07838022  0.40187082  0.53799797    -0.12800
C800        C  0.08821529  0.40930456  0.55470158    -0.14400
C801        C  0.12281824  0.36940838  0.43314343    -0.12800
C802        C  0.14176493  0.38817788  0.42039918    -0.14400
C803        C  0.31523484  0.16831197  0.42420010    -0.12800
C804        C  0.34148137  0.19512176  0.42860952    -0.14400
C805        C  0.03233764  0.23992966  0.51711489    -0.12800
C806        C  0.05496111  0.23099119  0.51954300    -0.14400
C807        C  0.28837660  0.25211334  0.50214349    -0.12800
C808        C  0.31986759  0.26104974  0.49954256    -0.14400
C809        C  0.07602609  0.15268584  0.64787449    -0.12800
C810        C  0.08664629  0.15560827  0.63130291    -0.14400
C811        C  0.02897264  0.26918711  0.66947303    -0.12800
C812        C  0.05156369  0.30068430  0.66691029    -0.14400
C813        C  0.28682121  0.01175328  0.68364277    -0.12800
C814        C  0.31840336  0.03450998  0.68589276    -0.14400
C815        C  0.17370369  0.06981074  0.72192038    -0.12800
C816        C  0.17084337  0.05924591  0.70532022    -0.14400
C817        C  0.12009048  0.22920320  0.75353692    -0.12800
C818        C  0.13885470  0.22930535  0.76641180    -0.14400
C819        C  0.31205362  0.12120282  0.76192091    -0.12800
C820        C  0.33865334  0.12146040  0.75726800    -0.14400
C821        C  0.27854889  0.38860582  0.10008918    -0.12800
C822        C  0.27803060  0.36964236  0.08723141    -0.14400
C823        C  0.38605340  0.19711518  0.09189327    -0.12800
C824        C  0.38632436  0.17077657  0.09639870    -0.14400
C825        C  0.43897421  0.33605128  0.13200598    -0.12800
C826        C  0.44911147  0.33833290  0.14864954    -0.14400
C827        C  0.49608792  0.22251852  0.16931832    -0.12800
C828        C  0.47329613  0.19105733  0.16690388    -0.14400
C829        C  0.20800982  0.45626244  0.18737653    -0.12800
C830        C  0.23951656  0.47883236  0.18490932    -0.14400
C831        C  0.10679470  0.43107099  0.31550047    -0.12800
C832        C  0.09918750  0.42071439  0.29889080    -0.14400
C833        C  0.41980661  0.33703854  0.37140641    -0.12800
C834        C  0.42801191  0.33513455  0.38801610    -0.14400
C835        C  0.35522542  0.43207969  0.20497737    -0.12800
C836        C  0.35251012  0.42115708  0.22148135    -0.14400
C837        C  0.38656742  0.25996157  0.26637685    -0.12800
C838        C  0.40557151  0.26017960  0.25363810    -0.14400
C839        C  0.21289309  0.36734046  0.26165920    -0.12800
C840        C  0.18650800  0.36784195  0.25750339    -0.14400
C841        C  0.25684266  0.22111485  0.35083055    -0.12800
C842        C  0.24797794  0.18960172  0.35331623    -0.14400
C843        C  0.26980984  0.47770774  0.33540677    -0.12800
C844        C  0.27848652  0.45491064  0.33289144    -0.14400
C845        C  0.41827206  0.05899335  0.81447409    -0.12800
C846        C  0.42569018  0.06936192  0.79786952    -0.14400
C847        C  0.25523240  0.01201827  0.83662820    -0.12800
C848        C  0.24610510  0.03449285  0.83419304    -0.14400
C849        C  0.26935214  0.26923723  0.85120336    -0.12800
C850        C  0.27855488  0.30086834  0.85371353    -0.14400
C851        C  0.35651869  0.40386969  0.98203221    -0.12800
C852        C  0.35361118  0.41091164  0.96533437    -0.14400
C853        C  0.43796097  0.08371170  0.05508926    -0.12800
C854        C  0.44875674  0.09165868  0.03856916    -0.14400
C855        C  0.10681717  0.15420698  0.87219878    -0.12800
C856        C  0.09897396  0.15693684  0.88879385    -0.14400
C857        C  0.40548566  0.12276477  0.93308383    -0.12800
C858        C  0.38678199  0.10398457  0.92022094    -0.14400
C859        C  0.18708024  0.29627606  0.92935892    -0.12800
C860        C  0.21361555  0.32281248  0.92494673    -0.14400
C861        C  0.49645721  0.25405972  0.01784370    -0.12800
C862        C  0.47384152  0.26298353  0.02034105    -0.14400
C863        C  0.24026492  0.24168797  0.00256809    -0.12800
C864        C  0.20866546  0.23263361  0.00024713    -0.14400
Zr865      Zr  0.99108717  0.66798406  0.98430801     2.17500
O866        O  0.45218845  0.69387878  0.98585723    -0.50900
O867        O  0.45948690  0.62379386  0.00962008    -0.74100
O868        O  0.43941671  0.64099114  0.96250522    -0.80900
O869        O  0.04850286  0.74721424  0.01083100    -0.82600
O870        O  0.46135410  0.63279846  0.93424083    -0.78200
O871        O  0.49352368  0.70195503  0.01216838    -0.89900
O872        O  0.99318486  0.59878504  0.01725868    -0.75800
O873        O  0.99506074  0.61896300  0.97188043    -0.85300
O874        O  0.03418802  0.66510263  0.00486726    -0.85000
O875        O  0.01313418  0.68632145  0.95170064    -0.71800
O876        O  0.04584984  0.72428004  0.98189000    -0.83900
Zr877      Zr  0.11268152  0.68538489  0.95645169     2.26400
Zr878      Zr  0.01794763  0.63687760  0.93952100     2.06300
Zr879      Zr  0.08827483  0.72061606  0.00257270     2.10000
Zr880      Zr  0.03822495  0.61606933  0.99222489     1.78800
O881        O  0.12822918  0.78116371  0.01348432    -0.92700
O882        O  0.99596794  0.55327926  0.98677841    -0.40500
O883        O  0.09286618  0.67139422  0.98967789    -0.77200
O884        O  0.05906274  0.62914156  0.95902313    -0.95800
O885        O  0.07185041  0.69207082  0.93674485    -0.89200
O886        O  0.10956006  0.73468504  0.97005926    -0.92000
C887        C  0.46767132  0.60492594  0.02056613     1.01800
C888        C  0.01442931  0.73311408  0.01431473     1.14700
C889        C  0.43706007  0.63346551  0.94429158     1.05500
O890        O  0.99805491  0.57356246  0.94012493    -0.94100
O891        O  0.05565745  0.64772375  0.91131607    -0.89900
O892        O  0.11242835  0.67019002  0.92190375    -0.83000
C893        C  0.08856502  0.65828115  0.90844451     1.12100
O894        O  0.03180158  0.76786072  0.94448017    -0.96100
Zr895      Zr  0.06859428  0.74074897  0.94971816     1.88900
O896        O  0.15555347  0.74024796  0.94151913    -0.72800
O897        O  0.99148016  0.61365452  0.90759405    -0.52000
O898        O  0.05727914  0.74256934  0.91507785    -0.96700
O899        O  0.09554266  0.80090946  0.96281945    -0.53900
O900        O  0.12740575  0.77166278  0.93557168    -0.73300
C901        C  0.15448334  0.76735509  0.93521917     0.99100
O902        O  0.14334801  0.65154586  0.95285244    -0.62100
O903        O  0.08623789  0.70499087  0.03680608    -0.56900
O904        O  0.16386501  0.70692875  0.97713056    -0.93600
O905        O  0.15126697  0.72969368  0.00402064    -0.92000
O906        O  0.06851984  0.61539600  0.02193843    -0.92400
O907        O  0.06695995  0.58034282  0.98946622    -0.91200
C908        C  0.17223368  0.72237902  0.99369572     1.17900
H909        H  0.02741028  0.66246481  0.01840391     0.33800
H910        H  0.06274190  0.61057153  0.95378438     0.44700
H911        H  0.13237416  0.75616150  0.97080664     0.38200
H912        H  0.99729519  0.69133598  0.94427379     0.34700
H913        H  0.99582820  0.54146808  0.99914309     0.26500
H914        H  0.96714271  0.59373039  0.90999722     0.32400
H915        H  0.07743053  0.76522166  0.91033529     0.38300
H916        H  0.05199448  0.59247540  0.02824958     0.32800
H917        H  0.09912680  0.69156676  0.03735694     0.31700
H918        H  0.14595253  0.79203769  0.00290510     0.33400
H919        H  0.11842673  0.80555665  0.96850796     0.32300
H920        H  0.09271150  0.59784245  0.98906020     0.36300
H921        H  0.14208178  0.64123308  0.96588616     0.29100
H922        H  0.42815508  0.67415590  0.98912770     0.33300
H923        H  0.04589277  0.78848651  0.93585425     0.36100
H924        H  0.10223765  0.72778023  0.04340411     0.28700
H925        H  0.12745865  0.63081337  0.94468329     0.41600
H926        H  0.97803736  0.56315096  0.94943908     0.31700
H927        H  0.97236792  0.55155825  0.98634999     0.39300
H928        H  0.08075511  0.79897074  0.97424000     0.31100
H929        H  0.98814106  0.63238301  0.90140352     0.31200
H930        H  0.45037382  0.70116309  0.97243021     0.31500
Zr931      Zr  0.34326985  0.51877871  0.86969295     2.17500
O932        O  0.31765734  0.55763445  0.86782545    -0.50900
O933        O  0.38805445  0.55103293  0.84452840    -0.74100
O934        O  0.36945804  0.57005985  0.89171005    -0.80900
O935        O  0.26281766  0.96038366  0.84352222    -0.82600
O936        O  0.37833201  0.54829792  0.91984655    -0.78200
O937        O  0.31076555  0.51656930  0.84134079    -0.89900
O938        O  0.41223655  0.51684102  0.83646585    -0.75800
O939        O  0.39230223  0.01450012  0.88167183    -0.85300
O940        O  0.34585072  0.97512872  0.84881667    -0.85000
O941        O  0.32509254  0.99677647  0.90196457    -0.71800
O942        O  0.28701347  0.96387568  0.87190378    -0.83900
Zr943      Zr  0.32509281  0.89669043  0.89751058     2.26400
Zr944      Zr  0.37449820  0.99174678  0.91408463     2.06300
Zr945      Zr  0.29028531  0.92118932  0.85129361     2.10000
Zr946      Zr  0.39481259  0.97095091  0.86147883     1.78800
O947        O  0.23059403  0.88167511  0.83907177    -0.92700
O948        O  0.45694758  0.01395118  0.86822445    -0.40500
O949        O  0.33933067  0.91644025  0.86428744    -0.77200
O950        O  0.38152650  0.95004166  0.89468441    -0.95800
O951        O  0.31908178  0.93810896  0.91705630    -0.89200
O952        O  0.27590754  0.90003958  0.88382251    -0.92000
C953        C  0.40640653  0.54257554  0.83332119     1.01800
C954        C  0.27632820  0.99442017  0.84013430     1.14700
C955        C  0.37704822  0.57238477  0.90990566     1.05500
O956        O  0.43753796  0.01045000  0.91303736    -0.94100
O957        O  0.36337506  0.95437819  0.94247580    -0.89900
O958        O  0.33969073  0.89727142  0.93222564    -0.83000
C959        C  0.35207432  0.92138530  0.94555680     1.12100
O960        O  0.24362284  0.97846877  0.90962364    -0.96100
Zr961      Zr  0.27051433  0.94156495  0.90410272     1.88900
O962        O  0.26991163  0.85423159  0.91236834    -0.72800
O963        O  0.39904434  0.01878648  0.94572981    -0.52000
O964        O  0.26973666  0.95334294  0.93876519    -0.96700
O965        O  0.21080927  0.91767834  0.89082887    -0.53900
O966        O  0.23851860  0.88254134  0.91792901    -0.73300
C967        C  0.24269779  0.85538817  0.91841892     0.99100
O968        O  0.35846005  0.86564228  0.90166260    -0.62100
O969        O  0.30701328  0.92374883  0.81719779    -0.56900
O970        O  0.30410468  0.84560946  0.87670487    -0.93600
O971        O  0.28073384  0.85803701  0.85002984    -0.92000
O972        O  0.39550109  0.94069400  0.83172903    -0.92400
O973        O  0.43107572  0.94270625  0.86356957    -0.91200
C974        C  0.28826038  0.83711741  0.86023720     1.17900
H975        H  0.34831097  0.98175975  0.83526657     0.33800
H976        H  0.39997617  0.94616597  0.89991285     0.44700
H977        H  0.25425276  0.87738039  0.88301407     0.38200
H978        H  0.32009229  0.01260536  0.90940906     0.34700
H979        H  0.46987443  0.01418733  0.85629143     0.26500
H980        H  0.41858106  0.04322144  0.94310808     0.32400
H981        H  0.24709598  0.93338823  0.94366234     0.38300
H982        H  0.41695895  0.95827903  0.82460273     0.32800
H983        H  0.32080374  0.91122395  0.81681241     0.31700
H984        H  0.21594987  0.87174015  0.85093271     0.33400
H985        H  0.20318631  0.89273347  0.88740824     0.32300
H986        H  0.41500575  0.91886279  0.86904016     0.36300
H987        H  0.37084968  0.86873671  0.88909717     0.29100
H988        H  0.33753787  0.58196206  0.86530825     0.33300
H989        H  0.22420081  0.96524738  0.91909711     0.36100
H990        H  0.28452080  0.90755362  0.81039663     0.28700
H991        H  0.37777973  0.88027177  0.91094005     0.41600
H992        H  0.44844568  0.53317731  0.90679729     0.31700
H993        H  0.45831340  0.03739874  0.86823195     0.39300
H994        H  0.21426586  0.92970443  0.87810675     0.31100
H995        H  0.38040128  0.02185688  0.95225160     0.31200
H996        H  0.30895409  0.55830174  0.88106741     0.31500
Zr997      Zr  0.34307900  0.80225022  0.31745626     2.17500
O998        O  0.31950045  0.73820998  0.32047995    -0.50900
O999        O  0.38841090  0.81612026  0.34254167    -0.74100
O1000       O  0.36922715  0.77709727  0.29549380    -0.80900
O1001       O  0.26311844  0.78009499  0.34365557    -0.82600
O1002       O  0.37740144  0.80701795  0.26715719    -0.78200
O1003       O  0.31062334  0.77280166  0.34604775    -0.89900
O1004       O  0.41314593  0.87488092  0.34973194    -0.75800
O1005       O  0.39138563  0.85490778  0.30435403    -0.85300
O1006       O  0.34615669  0.84858088  0.33771982    -0.85000
O1007       O  0.32355327  0.80488619  0.28490908    -0.71800
O1008       O  0.28655678  0.80021967  0.31524960    -0.83900
Zr1009     Zr  0.32402339  0.90506562  0.28921264     2.26400
Zr1010     Zr  0.37230652  0.85890985  0.27205633     2.06300
Zr1011     Zr  0.29022777  0.84646411  0.33572309     2.10000
Zr1012     Zr  0.39466097  0.90131368  0.32450346     1.78800
O1013       O  0.23004094  0.82571997  0.34727411    -0.92700
O1014       O  0.45688323  0.92078543  0.31782609    -0.40500
O1015       O  0.33894890  0.90006618  0.32236805    -0.77200
O1016       O  0.38041366  0.90804188  0.29136738    -0.95800
O1017       O  0.31682877  0.85712829  0.26963043    -0.89200
O1018       O  0.27520594  0.85286280  0.30331315    -0.92000
C1019       C  0.40741589  0.84349751  0.35325688     1.01800
C1020       C  0.27740994  0.76034470  0.34721021     1.14700
C1021       C  0.37658502  0.78205842  0.27727551     1.05500
O1022       O  0.43569747  0.90196912  0.27251667    -0.94100
O1023       O  0.36268997  0.88713604  0.24398013    -0.89900
O1024       O  0.33826698  0.91972202  0.25455272    -0.83000
C1025       C  0.35108205  0.90866839  0.24110293     1.12100
O1026       O  0.24201066  0.74123019  0.27927507    -0.96100
Zr1027     Zr  0.26879711  0.80537279  0.28325219     1.88900
O1028       O  0.26889529  0.89268741  0.27458013    -0.72800
O1029       O  0.39208738  0.85395664  0.23944831    -0.52000
O1030       O  0.26425307  0.78945623  0.24890473    -0.96700
O1031       O  0.20934997  0.77139438  0.29713489    -0.53900
O1032       O  0.23719079  0.83290355  0.26942335    -0.73300
C1033       C  0.24152997  0.86428747  0.26875520     0.99100
O1034       O  0.35800319  0.96954572  0.28566700    -0.62100
O1035       O  0.30677277  0.86020400  0.36987075    -0.56900
O1036       O  0.30285758  0.93489165  0.31001481    -0.93600
O1037       O  0.28026008  0.89971432  0.33695490    -0.92000
O1038       O  0.39677624  0.93278892  0.35429548    -0.92400
O1039       O  0.42960165  0.96560841  0.32072486    -0.91200
C1040       C  0.28748121  0.92788131  0.32659295     1.17900
H1041       H  0.34921780  0.84490630  0.35126695     0.33800
H1042       H  0.39871999  0.93014837  0.28590130     0.44700
H1043       H  0.25363660  0.85402990  0.30422930     0.38200
H1044       H  0.31846743  0.78385037  0.27764289     0.34700
H1045       H  0.46980631  0.93405908  0.32963583     0.26500
H1046       H  0.41222251  0.84961280  0.24117600     0.32400
H1047       H  0.24132225  0.78682912  0.24454925     0.38300
H1048       H  0.42080511  0.94104929  0.35969539     0.32800
H1049       H  0.29408664  0.87258311  0.37428985     0.31700
H1050       H  0.21490748  0.81513936  0.33562603     0.33400
H1051       H  0.19994277  0.78797556  0.29743264     0.32300
H1052       H  0.41199589  0.97373241  0.32125138     0.36300
H1053       H  0.36926308  0.97846013  0.29853849     0.29100
H1054       H  0.34001572  0.73481587  0.32317673     0.33300
H1055       H  0.22074322  0.73378781  0.27100912     0.36100
H1056       H  0.29445058  0.83687298  0.37651613     0.28700
H1057       H  0.37810066  0.97430146  0.27698140     0.41600
H1058       H  0.44636692  0.89126306  0.28089141     0.31700
H1059       H  0.45854208  0.89886865  0.31815776     0.39300
H1060       H  0.21331912  0.76813161  0.31099625     0.31100
H1061       H  0.37267986  0.83159494  0.23388029     0.31200
H1062       H  0.31072141  0.72782561  0.30741383     0.31500
Zr1063     Zr  0.99042277  0.80254959  0.20255213     2.17500
O1064       O  0.45178392  0.73836891  0.20164160    -0.50900
O1065       O  0.45882716  0.81634960  0.17777747    -0.74100
O1066       O  0.43920119  0.77846299  0.22482241    -0.80900
O1067       O  0.04850899  0.78078366  0.17637353    -0.82600
O1068       O  0.46187121  0.80683032  0.25347462    -0.78200
O1069       O  0.49228815  0.77328680  0.17416672    -0.89900
O1070       O  0.99212935  0.87479462  0.17050065    -0.75800
O1071       O  0.99435270  0.85509343  0.21556206    -0.85300
O1072       O  0.03355098  0.84892184  0.18224816    -0.85000
O1073       O  0.01255837  0.80537127  0.23507152    -0.71800
O1074       O  0.04522708  0.80117318  0.20475735    -0.83900
Zr1075     Zr  0.11232528  0.90566868  0.23079434     2.26400
Zr1076     Zr  0.01752336  0.85940430  0.24778216     2.06300
Zr1077     Zr  0.08767078  0.84728165  0.18424861     2.10000
Zr1078     Zr  0.03748070  0.90154052  0.19550363     1.78800
O1079       O  0.12720649  0.82667177  0.17262256    -0.92700
O1080       O  0.99477411  0.92078479  0.20293771    -0.40500
O1081       O  0.09217358  0.90065775  0.19767412    -0.77200
O1082       O  0.05879917  0.90849272  0.22857164    -0.95800
O1083       O  0.07140921  0.85792326  0.25028273    -0.89200
O1084       O  0.10919186  0.85359792  0.21667905    -0.92000
C1085       C  0.46693005  0.84378719  0.16717092     1.01800
C1086       C  0.01446690  0.76079693  0.17286313     1.14700
C1087       C  0.43731277  0.78252167  0.24321190     1.05500
O1088       O  0.99774845  0.90276777  0.24555923    -0.94100
O1089       O  0.05521405  0.88703658  0.27592644    -0.89900
O1090       O  0.11215943  0.92024653  0.26537166    -0.83000
C1091       C  0.08826971  0.90882209  0.27879289     1.12100
O1092       O  0.03112217  0.74219320  0.24106747    -0.96100
Zr1093     Zr  0.06796549  0.80626630  0.23677198     1.88900
O1094       O  0.15458299  0.89309045  0.24611848    -0.72800
O1095       O  0.99148127  0.85723104  0.27968437    -0.52000
O1096       O  0.05704164  0.79407684  0.27148442    -0.96700
O1097       O  0.09282554  0.77129303  0.22344459    -0.53900
O1098       O  0.12685270  0.83317990  0.25066750    -0.73300
C1099       C  0.15365166  0.86461237  0.25174552     0.99100
O1100       O  0.14272811  0.97015643  0.23425962    -0.62100
O1101       O  0.08521676  0.86133047  0.15012748    -0.56900
O1102       O  0.16372647  0.93527811  0.21031585    -0.93600
O1103       O  0.15062889  0.90106414  0.18291591    -0.92000
O1104       O  0.06578609  0.93335569  0.16564639    -0.92400
O1105       O  0.06726092  0.96597727  0.19843472    -0.91200
C1106       C  0.17180198  0.92885084  0.19350258     1.17900
H1107       H  0.02672685  0.84521859  0.16870950     0.33800
H1108       H  0.06266069  0.93065977  0.23400545     0.44700
H1109       H  0.13198084  0.85484854  0.21587536     0.38200
H1110       H  0.99676110  0.78428934  0.24232412     0.34700
H1111       H  0.99434237  0.93365232  0.19113015     0.26500
H1112       H  0.96699889  0.85234136  0.27719483     0.32400
H1113       H  0.07479478  0.78754498  0.27577678     0.38300
H1114       H  0.04793988  0.93793631  0.15935581     0.32800
H1115       H  0.09199627  0.88674668  0.15021260     0.31700
H1116       H  0.13326635  0.81775759  0.18444739     0.33400
H1117       H  0.11811139  0.78868749  0.22083977     0.32300
H1118       H  0.09278793  0.97355874  0.19965896     0.36300
H1119       H  0.14082432  0.97903134  0.22129286     0.29100
H1120       H  0.42751115  0.73383486  0.19879006     0.33300
H1121       H  0.04354989  0.73568593  0.25091335     0.36100
H1122       H  0.10571212  0.86101720  0.14402094     0.28700
H1123       H  0.12711299  0.97495974  0.24269657     0.41600
H1124       H  0.97227642  0.88864244  0.24215906     0.31700
H1125       H  0.97128029  0.89877802  0.20299508     0.39300
H1126       H  0.08202035  0.76393929  0.21034704     0.31100
H1127       H  0.98848109  0.83548876  0.28611726     0.31200
H1128       H  0.45079146  0.72947994  0.21504511     0.31500
Zr1129     Zr  0.31987016  0.97400296  0.15064246     2.17500
O1130       O  0.25527411  0.93538278  0.15188151    -0.50900
O1131       O  0.33310910  0.94193509  0.17568913    -0.74100
O1132       O  0.29536007  0.92249287  0.12897861    -0.80900
O1133       O  0.29836331  0.53074226  0.17792289    -0.82600
O1134       O  0.32452253  0.94452626  0.10048549    -0.78200
O1135       O  0.28972219  0.97528066  0.17921289    -0.89900
O1136       O  0.39186652  0.97553338  0.18303284    -0.75800
O1137       O  0.37277772  0.47817193  0.13746110    -0.85300
O1138       O  0.36675268  0.51678846  0.17122417    -0.85000
O1139       O  0.32300347  0.49675277  0.11834124    -0.71800
O1140       O  0.31846164  0.52871033  0.14901393    -0.83900
Zr1141     Zr  0.42320583  0.59594534  0.12317775     2.26400
Zr1142     Zr  0.37681291  0.50182227  0.10541114     2.06300
Zr1143     Zr  0.36467082  0.57059985  0.16964948     2.10000
Zr1144     Zr  0.41931909  0.52064392  0.15777393     1.78800
O1145       O  0.34364259  0.61024170  0.18051672    -0.92700
O1146       O  0.43649674  0.47643317  0.15008739    -0.40500
O1147       O  0.41813600  0.57524806  0.15614879    -0.77200
O1148       O  0.42600325  0.54244698  0.12480120    -0.95800
O1149       O  0.37529377  0.55570679  0.10348196    -0.89200
O1150       O  0.37117023  0.59266760  0.13736093    -0.92000
C1151       C  0.36036231  0.94993631  0.18646123     1.01800
C1152       C  0.27797892  0.99655715  0.18097973     1.14700
C1153       C  0.29991209  0.92023056  0.11070598     1.05500
O1154       O  0.42033491  0.48209612  0.10623010    -0.94100
O1155       O  0.40455760  0.54003458  0.07756206    -0.89900
O1156       O  0.43775009  0.59668181  0.08855619    -0.83000
C1157       C  0.42637109  0.57312561  0.07495457     1.12100
O1158       O  0.25955376  0.51464840  0.11320474    -0.96100
Zr1159     Zr  0.32367241  0.55211945  0.11715236     1.88900
O1160       O  0.41140219  0.63896861  0.10837575    -0.72800
O1161       O  0.37198095  0.47727138  0.07275583    -0.52000
O1162       O  0.30801367  0.54090021  0.08277869    -0.96700
O1163       O  0.29067810  0.57863013  0.13117171    -0.53900
O1164       O  0.35161759  0.61111777  0.10319103    -0.73300
C1165       C  0.38307958  0.63800475  0.10243597     0.99100
O1166       O  0.48771113  0.62621138  0.11992314    -0.62100
O1167       O  0.37764555  0.56767928  0.20390997    -0.56900
O1168       O  0.45270880  0.64685903  0.14395133    -0.93600
O1169       O  0.41836127  0.63345626  0.17130215    -0.92000
O1170       O  0.45486479  0.55137294  0.18627872    -0.92400
O1171       O  0.48373523  0.54825113  0.15463802    -0.91200
C1172       C  0.44609213  0.65475599  0.16075701     1.17900
H1173       H  0.36293485  0.50998084  0.18475581     0.33800
H1174       H  0.44803008  0.54643336  0.11912732     0.44700
H1175       H  0.37261090  0.61552509  0.13826784     0.38200
H1176       H  0.30161877  0.98074962  0.11095268     0.34700
H1177       H  0.45010223  0.47617353  0.16160313     0.26500
H1178       H  0.36731549  0.45268519  0.07442026     0.32400
H1179       H  0.30190292  0.55917155  0.07893808     0.38300
H1180       H  0.45964392  0.53378912  0.19272490     0.32800
H1181       H  0.39304202  0.59278214  0.20784720     0.31700
H1182       H  0.34826928  0.62650439  0.16940272     0.33400
H1183       H  0.30900824  0.60293076  0.13508217     0.32300
H1184       H  0.48810799  0.54312093  0.14119134     0.36300
H1185       H  0.49624559  0.62282977  0.13268395     0.29100
H1186       H  0.25058404  0.91104058  0.15466256     0.33300
H1187       H  0.25195507  0.52872628  0.10528089     0.36100
H1188       H  0.35481727  0.56011511  0.21065945     0.28700
H1189       H  0.49247213  0.61135626  0.11084697     0.41600
H1190       H  0.40583464  0.95674512  0.11164479     0.31700
H1191       H  0.41478793  0.95390892  0.14992703     0.39300
H1192       H  0.28123959  0.56593997  0.14364857     0.31100
H1193       H  0.34977084  0.47463862  0.06714047     0.31200
H1194       H  0.24636749  0.93452445  0.13849169     0.31500
Zr1195     Zr  0.32040923  0.82711447  0.03626611     2.17500
O1196       O  0.25631300  0.80330188  0.03312868    -0.50900
O1197       O  0.33437243  0.87309135  0.01156983    -0.74100
O1198       O  0.29469574  0.85224124  0.05855289    -0.80900
O1199       O  0.29889961  0.74792710  0.00964861    -0.82600
O1200       O  0.32498207  0.86074976  0.08681092    -0.78200
O1201       O  0.29041772  0.79481529  0.00776705    -0.89900
O1202       O  0.39285375  0.89701887  0.00387789    -0.75800
O1203       O  0.37275640  0.87544842  0.04959286    -0.85300
O1204       O  0.36693907  0.83077669  0.01592464    -0.85000
O1205       O  0.32312501  0.80712861  0.06865131    -0.71800
O1206       O  0.31896883  0.77086274  0.03814737    -0.83900
Zr1207     Zr  0.42371257  0.80814628  0.06425896     2.26400
Zr1208     Zr  0.37693999  0.85587258  0.08163294     2.06300
Zr1209     Zr  0.36538027  0.77510885  0.01767052     2.10000
Zr1210     Zr  0.41940899  0.87934012  0.02947569     1.78800
O1211       O  0.34427037  0.71473095  0.00634683    -0.92700
O1212       O  0.43584158  0.94041115  0.03739143    -0.40500
O1213       O  0.41870001  0.82384517  0.03129093    -0.77200
O1214       O  0.42634718  0.86440918  0.06241748    -0.95800
O1215       O  0.37566082  0.80059642  0.08377316    -0.89200
O1216       O  0.37171063  0.75939956  0.04994315    -0.92000
C1217       C  0.36146444  0.89155536  0.00057517     1.01800
C1218       C  0.27867092  0.76176887  0.00622925     1.14700
C1219       C  0.29976638  0.85960848  0.07676990     1.05500
O1220       O  0.41916359  0.91934196  0.08058157    -0.94100
O1221       O  0.40590225  0.84740003  0.10955316    -0.89900
O1222       O  0.43804126  0.82251372  0.09892395    -0.83000
C1223       C  0.42721620  0.83556051  0.11235912     1.12100
O1224       O  0.26000800  0.72619192  0.07407288    -0.96100
Zr1225     Zr  0.32408231  0.75263571  0.07001392     1.88900
O1226       O  0.41124136  0.75287195  0.07876950    -0.72800
O1227       O  0.37194909  0.87428473  0.11459181    -0.52000
O1228       O  0.30953180  0.74904435  0.10449616    -0.96700
O1229       O  0.29034232  0.69300870  0.05630138    -0.53900
O1230       O  0.35146284  0.72101088  0.08390220    -0.73300
C1231       C  0.38289765  0.72548856  0.08461828     0.99100
O1232       O  0.48820249  0.84144255  0.06802358    -0.62100
O1233       O  0.37773698  0.79065130  0.98337504    -0.56900
O1234       O  0.45391231  0.78733706  0.04353291    -0.93600
O1235       O  0.42005207  0.76722601  0.01595533    -0.92000
O1236       O  0.45468908  0.88303245  0.00110038    -0.92400
O1237       O  0.48351077  0.91740178  0.03260066    -0.91200
C1238       C  0.44780508  0.77359099  0.02652901     1.17900
H1239       H  0.36315028  0.83372857  0.00237972     0.33800
H1240       H  0.44840218  0.88270869  0.06797692     0.44700
H1241       H  0.37303940  0.73792591  0.04894765     0.38200
H1242       H  0.30208950  0.80186213  0.07596051     0.34700
H1243       H  0.44940773  0.95449667  0.02593548     0.26500
H1244       H  0.36805242  0.89475639  0.11320017     0.32400
H1245       H  0.30139685  0.72409243  0.10815456     0.38300
H1246       H  0.43780520  0.86381516  0.99238641     0.32800
H1247       H  0.38964611  0.77757109  0.97884594     0.31700
H1248       H  0.34069890  0.70081730  0.01839218     0.33400
H1249       H  0.30820054  0.68576441  0.05353983     0.32300
H1250       H  0.49215572  0.90125968  0.03682705     0.36300
H1251       H  0.49732774  0.85299953  0.05524648     0.29100
H1252       H  0.25281307  0.82378136  0.03054893     0.33300
H1253       H  0.25259014  0.70519548  0.08253893     0.36100
H1254       H  0.35408505  0.77835007  0.97704887     0.28700
H1255       H  0.49309801  0.86137302  0.07688362     0.41600
H1256       H  0.40485400  0.93014263  0.07648510     0.31700
H1257       H  0.41337565  0.94104112  0.03690459     0.39300
H1258       H  0.28276360  0.69648942  0.04327817     0.31100
H1259       H  0.34933616  0.85486507  0.11990124     0.31200
H1260       H  0.24582040  0.79424537  0.04613523     0.31500
Zr1261     Zr  0.18285626  0.68836478  0.81758733     2.17500
O1262       O  0.20773850  0.75272490  0.81984318    -0.50900
O1263       O  0.13751507  0.67504508  0.84260579    -0.74100
O1264       O  0.15673435  0.71346940  0.79553264    -0.80900
O1265       O  0.26246017  0.71053549  0.84392428    -0.82600
O1266       O  0.14662679  0.68186942  0.76763774    -0.78200
O1267       O  0.21520747  0.71840629  0.84611283    -0.89900
O1268       O  0.11371296  0.61671718  0.85057877    -0.75800
O1269       O  0.13423010  0.63539087  0.80491557    -0.85300
O1270       O  0.18003802  0.64249376  0.83816444    -0.85000
O1271       O  0.20159614  0.68464827  0.78502364    -0.71800
O1272       O  0.23934707  0.69022242  0.81531950    -0.83900
Zr1273     Zr  0.20122725  0.58453384  0.78972754     2.26400
Zr1274     Zr  0.15250212  0.63042927  0.77262160     2.06300
Zr1275     Zr  0.23571236  0.64412136  0.83592871     2.10000
Zr1276     Zr  0.13133001  0.58947767  0.82531537     1.78800
O1277       O  0.29567373  0.66446851  0.84775205    -0.92700
O1278       O  0.06927060  0.57085079  0.81871713    -0.40500
O1279       O  0.18679480  0.59030843  0.82286289    -0.77200
O1280       O  0.14485168  0.58173548  0.79217945    -0.95800
O1281       O  0.20793139  0.63218136  0.77014834    -0.89200
O1282       O  0.25036640  0.63699738  0.80349156    -0.92000
C1283       C  0.11911684  0.64811764  0.85371577     1.01800
C1284       C  0.24835119  0.73047595  0.84751054     1.14700
C1285       C  0.14840191  0.70760078  0.77744603     1.05500
O1286       O  0.08920239  0.58705901  0.77222978    -0.94100
O1287       O  0.16181984  0.60201634  0.74464566    -0.89900
O1288       O  0.18731603  0.57030951  0.75500955    -0.83000
C1289       C  0.17401953  0.58103770  0.74166701     1.12100
O1290       O  0.28187916  0.74765897  0.77732329    -0.96100
Zr1291     Zr  0.25637954  0.68413420  0.78326897     1.88900
O1292       O  0.25568412  0.59634538  0.77436812    -0.72800
O1293       O  0.13362007  0.63563623  0.73980841    -0.52000
O1294       O  0.26068983  0.69790202  0.74862316    -0.96700
O1295       O  0.31564800  0.71804419  0.79748205    -0.53900
O1296       O  0.28752973  0.65615899  0.76937368    -0.73300
C1297       C  0.28296330  0.62470428  0.76842086     0.99100
O1298       O  0.16650861  0.52007134  0.78608065    -0.62100
O1299       O  0.22064211  0.63177610  0.87027308    -0.56900
O1300       O  0.22300468  0.55516720  0.81054245    -0.93600
O1301       O  0.24478351  0.59021778  0.83761206    -0.92000
O1302       O  0.13237435  0.55771497  0.85431464    -0.92400
O1303       O  0.09331754  0.52523583  0.82308190    -0.91200
C1304       C  0.23795919  0.56210790  0.82725624     1.17900
H1305       H  0.17735539  0.64656738  0.85170677     0.33800
H1306       H  0.12631520  0.55953689  0.78691818     0.44700
H1307       H  0.27188820  0.63571103  0.80427334     0.38200
H1308       H  0.20636518  0.70537468  0.77756021     0.34700
H1309       H  0.05647380  0.55907423  0.83084694     0.26500
H1310       H  0.11345233  0.63999134  0.74128371     0.32400
H1311       H  0.28489786  0.70339567  0.74480097     0.38300
H1312       H  0.11504127  0.55860192  0.86332800     0.32800
H1313       H  0.22899144  0.61511179  0.87392045     0.31700
H1314       H  0.30993064  0.66829949  0.83581501     0.33400
H1315       H  0.32420328  0.70086020  0.79879834     0.32300
H1316       H  0.10944568  0.51645544  0.81903759     0.36300
H1317       H  0.15721045  0.51098542  0.79927355     0.29100
H1318       H  0.18766355  0.75674615  0.82269279     0.33300
H1319       H  0.30452618  0.75520459  0.77037148     0.36100
H1320       H  0.23726930  0.65425269  0.87696180     0.28700
H1321       H  0.14521588  0.51551304  0.77852238     0.41600
H1322       H  0.07833190  0.59646197  0.78137979     0.31700
H1323       H  0.06827971  0.59312214  0.81822863     0.39300
H1324       H  0.31160903  0.72291749  0.81104995     0.31100
H1325       H  0.15319966  0.65801677  0.73438268     0.31200
H1326       H  0.21603799  0.76243004  0.80661416     0.31500
Zr1327     Zr  0.03543289  0.68810036  0.70240961     2.17500
O1328       O  0.07412621  0.75254930  0.70061804    -0.50900
O1329       O  0.06743125  0.67484636  0.67732419    -0.74100
O1330       O  0.08658196  0.71305467  0.72454435    -0.80900
O1331       O  0.47779121  0.71010420  0.67579660    -0.82600
O1332       O  0.06446161  0.68308902  0.75282727    -0.78200
O1333       O  0.03384897  0.71908359  0.67426138    -0.89900
O1334       O  0.03340064  0.61631123  0.66960462    -0.75800
O1335       O  0.03160655  0.63558370  0.71529249    -0.85300
O1336       O  0.49224184  0.64169084  0.68193885    -0.85000
O1337       O  0.51258461  0.68464868  0.73493205    -0.71800
O1338       O  0.48062161  0.68959097  0.70452613    -0.83900
Zr1339     Zr  0.41292975  0.58431710  0.73007363     2.26400
Zr1340     Zr  0.50734504  0.63043218  0.74746870     2.06300
Zr1341     Zr  0.43836114  0.64362211  0.68383131     2.10000
Zr1342     Zr  0.48807205  0.58875175  0.69496712     1.78800
O1343       O  0.39780067  0.66378824  0.67342794    -0.92700
O1344       O  0.53239353  0.57112357  0.70130971    -0.40500
O1345       O  0.43365462  0.59010015  0.69706770    -0.77200
O1346       O  0.46648556  0.58153147  0.72803051    -0.95800
O1347       O  0.45351627  0.63200754  0.74976259    -0.89200
O1348       O  0.41637127  0.63663054  0.71613039    -0.92000
C1349       C  0.05910881  0.64779656  0.66632304     1.01800
C1350       C  0.01215559  0.73033425  0.67245393     1.14700
C1351       C  0.08874058  0.70806813  0.74279796     1.05500
O1352       O  0.52722275  0.58707603  0.74589701    -0.94100
O1353       O  0.46929119  0.60328666  0.77549076    -0.89900
O1354       O  0.41236817  0.57026378  0.76484500    -0.83000
C1355       C  0.43618247  0.58178966  0.77833917     1.12100
O1356       O  0.49349625  0.74765925  0.74215629    -0.96100
Zr1357     Zr  0.45717866  0.68387823  0.73642423     1.88900
O1358       O  0.36987825  0.59644989  0.74474683    -0.72800
O1359       O  0.53296027  0.63276129  0.77951193    -0.52000
O1360       O  0.46790933  0.69737716  0.77104581    -0.96700
O1361       O  0.43359376  0.71932874  0.72223864    -0.53900
O1362       O  0.39752810  0.65634726  0.74954825    -0.73300
C1363       C  0.37065522  0.62486841  0.75038769     0.99100
O1364       O  0.38377540  0.51981803  0.73309353    -0.62100
O1365       O  0.44134513  0.63056366  0.64960708    -0.56900
O1366       O  0.36241513  0.55422904  0.70896332    -0.93600
O1367       O  0.37578954  0.58928241  0.68190055    -0.92000
O1368       O  0.45754089  0.55517988  0.66590379    -0.92400
O1369       O  0.45887320  0.52425908  0.69811008    -0.91200
C1370       C  0.35460908  0.56105063  0.69217209     1.17900
H1371       H  0.49906144  0.64577175  0.66841284     0.30200
H1372       H  0.46259025  0.55941155  0.73351975     0.44700
H1373       H  0.39358956  0.63533299  0.71510736     0.38200
H1374       H  0.02860925  0.70592950  0.74216051     0.34700
H1375       H  0.53169536  0.55735708  0.68964487     0.26500
H1376       H  0.55742601  0.63747525  0.77718996     0.32400
H1377       H  0.44780790  0.70023320  0.77552597     0.38300
H1378       H  0.47613748  0.55403266  0.65812017     0.32800
H1379       H  0.41785038  0.60955787  0.64680084     0.31700
H1380       H  0.39092262  0.67099372  0.68561139     0.33400
H1381       H  0.40922314  0.70181910  0.71798253     0.32300
H1382       H  0.46758247  0.51980056  0.71052643     0.36300
H1383       H  0.38786570  0.51166928  0.72037883     0.29100
H1384       H  0.09838623  0.75697225  0.69786103     0.33300
H1385       H  0.47901962  0.75404836  0.75058364     0.36100
H1386       H  0.44118315  0.65029511  0.64248781     0.28700
H1387       H  0.39864046  0.51538069  0.74232982     0.41600
H1388       H  0.05269409  0.60100881  0.74176527     0.31700
H1389       H  0.05618167  0.59440805  0.70278606     0.39300
H1390       H  0.44701136  0.72884121  0.70996264     0.31100
H1391       H  0.03721828  0.65445092  0.78575780     0.31200
H1392       H  0.07513257  0.76183163  0.71392686     0.31500
Zr1393     Zr  0.03688799  0.82555911  0.48393599     2.17500
O1394       O  0.07781750  0.80252403  0.48732222    -0.50900
O1395       O  0.06853932  0.87126873  0.50882318    -0.74100
O1396       O  0.08790115  0.85073160  0.46185564    -0.80900
O1397       O  0.47989443  0.74616274  0.51023161    -0.82600
O1398       O  0.06664294  0.86037384  0.43374271    -0.78200
O1399       O  0.03458732  0.79293086  0.51228255    -0.89900
O1400       O  0.03425345  0.89550483  0.51653869    -0.75800
O1401       O  0.03261588  0.87400100  0.47094745    -0.85300
O1402       O  0.49491557  0.82947749  0.50425691    -0.85000
O1403       O  0.51545325  0.80639366  0.45132582    -0.71800
O1404       O  0.48323087  0.76965000  0.48176130    -0.83900
Zr1405     Zr  0.41592970  0.80699143  0.45578368     2.26400
Zr1406     Zr  0.51039488  0.85531397  0.43850848     2.06300
Zr1407     Zr  0.44091491  0.77367482  0.50231649     2.10000
Zr1408     Zr  0.49052319  0.87788020  0.49090698     1.78800
O1409       O  0.40167521  0.71461908  0.51536576    -0.92700
O1410       O  0.53336789  0.94010471  0.48427200    -0.40500
O1411       O  0.43606133  0.82229303  0.48884635    -0.77200
O1412       O  0.46933532  0.86344713  0.45782123    -0.95800
O1413       O  0.45661760  0.79987454  0.43618154    -0.89200
O1414       O  0.41912668  0.75809704  0.46993494    -0.92000
C1415       C  0.06008394  0.88991331  0.51979506     1.01800
C1416       C  0.01367715  0.75976757  0.51342803     1.14700
C1417       C  0.09051200  0.85873107  0.44373715     1.05500
O1418       O  0.53093694  0.91870846  0.43932702    -0.94100
O1419       O  0.47277709  0.84725267  0.41065915    -0.89900
O1420       O  0.41567722  0.82135409  0.42122800    -0.83000
C1421       C  0.43954023  0.83499268  0.40785087     1.12100
O1422       O  0.49643988  0.72415778  0.44416873    -0.96100
Zr1423     Zr  0.46017034  0.75174340  0.44978854     1.88900
O1424       O  0.37326167  0.75189694  0.44105345    -0.72800
O1425       O  0.53520509  0.87363789  0.40576439    -0.52000
O1426       O  0.46965947  0.74753331  0.41513484    -0.96700
O1427       O  0.43621297  0.69318777  0.46461455    -0.53900
O1428       O  0.40117120  0.71999718  0.43595537    -0.73300
C1429       C  0.37426890  0.72455311  0.43513430     0.99100
O1430       O  0.38473281  0.84022163  0.45181873    -0.62100
O1431       O  0.44470337  0.79152096  0.53628556    -0.56900
O1432       O  0.36468070  0.78578268  0.47628139    -0.93600
O1433       O  0.37761400  0.76387070  0.50338966    -0.92000
O1434       O  0.45733979  0.87770574  0.51953577    -0.92400
O1435       O  0.46238175  0.91414611  0.48816661    -0.91200
C1436       C  0.35644853  0.77070364  0.49292538     1.17900
H1437       H  0.50186046  0.83257508  0.51777321     0.33800
H1438       H  0.46545032  0.88172985  0.45235787     0.44700
H1439       H  0.39636906  0.73657869  0.47085714     0.38200
H1440       H  0.03041362  0.80107813  0.44404864     0.34700
H1441       H  0.53421822  0.95286919  0.49639934     0.26500
H1442       H  0.55948457  0.89420960  0.40727005     0.32400
H1443       H  0.49106995  0.77045130  0.41189238     0.38300
H1444       H  0.47490449  0.89744671  0.52773502     0.32800
H1445       H  0.41967637  0.78172390  0.54039883     0.31700
H1446       H  0.39401782  0.69886238  0.50381187     0.33400
H1447       H  0.41203820  0.68685044  0.46899538     0.32300
H1448       H  0.43682912  0.89686587  0.48622601     0.36300
H1449       H  0.38670791  0.85149474  0.46464542     0.29100
H1450       H  0.10180033  0.82318955  0.48961006     0.33300
H1451       H  0.48175112  0.70309211  0.43591779     0.36100
H1452       H  0.45283081  0.77693573  0.54328421     0.28700
H1453       H  0.40000959  0.86035319  0.44315090     0.41600
H1454       H  0.05205345  0.92925863  0.44689570     0.31700
H1455       H  0.05645694  0.94024947  0.48394615     0.39300
H1456       H  0.44988793  0.69734185  0.47682433     0.31100
H1457       H  0.03631931  0.85394131  0.40049175     0.31200
H1458       H  0.07894232  0.79280993  0.47445254     0.31500
Zr1459     Zr  0.18360211  0.97233839  0.36933118     2.17500
O1460       O  0.20752917  0.93207523  0.36676361    -0.50900
O1461       O  0.13839306  0.94064698  0.34429793    -0.74100
O1462       O  0.15808493  0.92136097  0.39151472    -0.80900
O1463       O  0.26333133  0.52998131  0.34246154    -0.82600
O1464       O  0.14952508  0.94304729  0.41976716    -0.78200
O1465       O  0.21565223  0.97433890  0.34082359    -0.89900
O1466       O  0.11360065  0.97461934  0.33704110    -0.75800
O1467       O  0.13571322  0.47731296  0.38224331    -0.85300
O1468       O  0.18071634  0.51578487  0.34877538    -0.85000
O1469       O  0.20397631  0.49550336  0.40162360    -0.71800
O1470       O  0.24047114  0.52746616  0.37105659    -0.83900
Zr1471     Zr  0.20369382  0.59544954  0.39704879     2.26400
Zr1472     Zr  0.15518476  0.50083389  0.41437520     2.06300
Zr1473     Zr  0.23653961  0.56970785  0.35046543     2.10000
Zr1474     Zr  0.13248655  0.52050265  0.36209310     1.78800
O1475       O  0.29633921  0.60948995  0.33852261    -0.92700
O1476       O  0.07027351  0.47898869  0.36950585    -0.40500
O1477       O  0.18813580  0.57495263  0.36401939    -0.77200
O1478       O  0.14724048  0.54204388  0.39510513    -0.95800
O1479       O  0.21062806  0.55457854  0.41651060    -0.89200
O1480       O  0.25227926  0.59181970  0.38274962    -0.92000
C1481       C  0.11941340  0.94897965  0.33354640     1.01800
C1482       C  0.24873562  0.99539734  0.33926397     1.14700
C1483       C  0.15071703  0.91900491  0.40972792     1.05500
O1484       O  0.09194310  0.48121776  0.41347551    -0.94100
O1485       O  0.16556757  0.53888053  0.44232019    -0.89900
O1486       O  0.19020888  0.59590672  0.43179777    -0.83000
C1487       C  0.17745255  0.57201799  0.44521048     1.12100
O1488       O  0.28579216  0.51405841  0.40759785    -0.96100
Zr1489     Zr  0.25860352  0.55086444  0.40292753     1.88900
O1490       O  0.25908633  0.63821448  0.41153380    -0.72800
O1491       O  0.13543516  0.47674319  0.44708949    -0.52000
O1492       O  0.26137255  0.54123287  0.43768088    -0.96700
O1493       O  0.31760280  0.57456262  0.38874151    -0.53900
O1494       O  0.29093121  0.61017694  0.41640133    -0.73300
C1495       C  0.28655141  0.63718821  0.41721913     0.99100
O1496       O  0.16984282  0.62606427  0.40096725    -0.62100
O1497       O  0.22014659  0.56630981  0.31626879    -0.56900
O1498       O  0.22486383  0.64643574  0.37636888    -0.93600
O1499       O  0.24547572  0.63265871  0.34899489    -0.92000
O1500       O  0.13125113  0.55117886  0.33268078    -0.92400
O1501       O  0.09680283  0.54929574  0.36476818    -0.91200
C1502       C  0.23910816  0.65412148  0.35949729     1.17900
H1503       H  0.17757095  0.50882372  0.33525822     0.33800
H1504       H  0.12901024  0.54600633  0.40058261     0.44700
H1505       H  0.27385889  0.61450295  0.38171731     0.38200
H1506       H  0.20848088  0.97890268  0.40903059     0.34700
H1507       H  0.05727751  0.47773824  0.35740528     0.26500
H1508       H  0.11536401  0.45223684  0.44544929     0.32400
H1509       H  0.28598802  0.55876211  0.44156719     0.38300
H1510       H  0.10824184  0.53473930  0.32640800     0.32800
H1511       H  0.22219444  0.58962248  0.31347128     0.31700
H1512       H  0.31187075  0.61352100  0.34992553     0.33400
H1513       H  0.32608862  0.60008860  0.38654426     0.32300
H1514       H  0.11418702  0.57452872  0.36749977     0.36300
H1515       H  0.15835713  0.62375101  0.38817429     0.29100
H1516       H  0.18715830  0.90804516  0.36417233     0.33300
H1517       H  0.30593143  0.52755052  0.41663371     0.36100
H1518       H  0.24018394  0.56681920  0.30910528     0.28700
H1519       H  0.14990910  0.61078083  0.40975091     0.41600
H1520       H  0.08003874  0.95527187  0.40829332     0.31700
H1521       H  0.06861106  0.95408739  0.37043638     0.39300
H1522       H  0.31331047  0.56420082  0.37549181     0.31100
H1523       H  0.15487216  0.47390083  0.45273176     0.31200
H1524       H  0.21644448  0.93085130  0.37985815     0.31500
Zr1525     Zr  0.20525233  0.51758625  0.65072169     2.17500
O1526       O  0.26935688  0.55848001  0.65349286    -0.50900
O1527       O  0.19200850  0.54917070  0.67601409    -0.74100
O1528       O  0.23073228  0.56849051  0.62860620    -0.80900
O1529       O  0.22767157  0.95966118  0.67702032    -0.82600
O1530       O  0.19965132  0.54702226  0.60057417    -0.78200
O1531       O  0.23698874  0.51570662  0.67845450    -0.89900
O1532       O  0.13336513  0.51551371  0.68346531    -0.75800
O1533       O  0.15292386  0.01386403  0.63811411    -0.85300
O1534       O  0.15935243  0.97439767  0.67130725    -0.85000
O1535       O  0.20224474  0.99544767  0.61829026    -0.71800
O1536       O  0.20696191  0.96278995  0.64852147    -0.83900
Zr1537     Zr  0.10202788  0.89600340  0.62268777     2.26400
Zr1538     Zr  0.14825442  0.99079263  0.60586213     2.06300
Zr1539     Zr  0.16106489  0.92034470  0.66906407     2.10000
Zr1540     Zr  0.10659569  0.97069782  0.65823340     1.78800
O1541       O  0.18172728  0.88027056  0.67962915    -0.92700
O1542       O  0.08895637  0.01472879  0.65087333    -0.40500
O1543       O  0.10785038  0.91629072  0.65577815    -0.77200
O1544       O  0.09918925  0.94951893  0.62507370    -0.95800
O1545       O  0.14977631  0.93697957  0.60322573    -0.89200
O1546       O  0.15414262  0.89889940  0.63658235    -0.92000
C1547       C  0.16485594  0.54106930  0.68685017     1.01800
C1548       C  0.24800397  0.99375538  0.68036297     1.14700
C1549       C  0.22528718  0.57089737  0.61047772     1.05500
O1550       O  0.10478856  0.01048488  0.60777343    -0.94100
O1551       O  0.12086483  0.95325867  0.57767467    -0.89900
O1552       O  0.08809004  0.89613783  0.58800185    -0.83000
C1553       C  0.09948411  0.92017628  0.57466664     1.12100
O1554       O  0.26567106  0.97729431  0.61315676    -0.96100
Zr1555     Zr  0.20141611  0.94000655  0.61646931     1.88900
O1556       O  0.11376022  0.85314327  0.60741084    -0.72800
O1557       O  0.15145298  0.01636171  0.57371540    -0.52000
O1558       O  0.21619076  0.95108301  0.58199185    -0.96700
O1559       O  0.23444721  0.91301513  0.62978695    -0.53900
O1560       O  0.17348005  0.88137225  0.60203196    -0.73300
C1561       C  0.14211138  0.85436516  0.60125900     0.99100
O1562       O  0.03746327  0.86591405  0.61977329    -0.62100
O1563       O  0.14721104  0.92219552  0.70328650    -0.56900
O1564       O  0.07208982  0.84483224  0.64324067    -0.93600
O1565       O  0.10705055  0.85745977  0.67031074    -0.92000
O1566       O  0.07259212  0.93963214  0.68702944    -0.92400
O1567       O  0.04191571  0.94025532  0.65624098    -0.91200
C1568       C  0.07892187  0.83652064  0.65987703     1.17900
H1569       H  0.16334553  0.98112665  0.68485615     0.33800
H1570       H  0.07704015  0.94569719  0.61963956     0.44700
H1571       H  0.15277279  0.87605147  0.63725633     0.38200
H1572       H  0.22310622  0.01131105  0.61089650     0.34700
H1573       H  0.07512108  0.01456051  0.66237885     0.26500
H1574       H  0.15536817  0.04054982  0.57600282     0.32400
H1575       H  0.22452973  0.93440707  0.57833625     0.38300
H1576       H  0.06981643  0.95766399  0.69443542     0.32800
H1577       H  0.12090590  0.90884375  0.70382100     0.31700
H1578       H  0.18830484  0.87282223  0.66742525     0.33400
H1579       H  0.21654392  0.88767813  0.63178949     0.32300
H1580       H  0.03650020  0.94746104  0.64360319     0.36300
H1581       H  0.02927921  0.87031445  0.63239227     0.29100
H1582       H  0.27289080  0.58256283  0.65575530     0.33300
H1583       H  0.27316081  0.96413411  0.60438580     0.36100
H1584       H  0.15446709  0.90658060  0.70991464     0.28700
H1585       H  0.03265310  0.88019117  0.61031145     0.41600
H1586       H  0.11913910  0.03637293  0.61005794     0.31700
H1587       H  0.11112988  0.03804114  0.65153219     0.39300
H1588       H  0.24112065  0.92285189  0.64312143     0.31100
H1589       H  0.17386354  0.02009989  0.56778761     0.31200
H1590       H  0.27981535  0.55933744  0.64054127     0.31500
Zr1591     Zr  0.20741588  0.66597444  0.53621235     2.17500
O1592       O  0.27170454  0.69036699  0.53415330    -0.50900
O1593       O  0.19454119  0.62105206  0.51104253    -0.74100
O1594       O  0.23195079  0.63930509  0.55811629    -0.80900
O1595       O  0.22977029  0.74500514  0.50892696    -0.82600
O1596       O  0.20120936  0.63055852  0.58618180    -0.78200
O1597       O  0.23885625  0.69829748  0.50810354    -0.89900
O1598       O  0.13609181  0.59642183  0.50315156    -0.75800
O1599       O  0.15456629  0.61731131  0.54888145    -0.85300
O1600       O  0.16174363  0.66291845  0.51542396    -0.85000
O1601       O  0.20378827  0.68505132  0.56867103    -0.71800
O1602       O  0.20928740  0.72242398  0.53822014    -0.83900
Zr1603     Zr  0.10392838  0.68471798  0.56339771     2.26400
Zr1604     Zr  0.14950248  0.63604589  0.58104817     2.06300
Zr1605     Zr  0.16352023  0.71863723  0.51725661     2.10000
Zr1606     Zr  0.10873801  0.61414735  0.52825692     1.78800
O1607       O  0.18525670  0.77920677  0.50602668    -0.92700
O1608       O  0.09149172  0.55279831  0.53595615    -0.40500
O1609       O  0.10980271  0.66979079  0.53038087    -0.77200
O1610       O  0.10091641  0.62829612  0.56126919    -0.95800
O1611       O  0.15118448  0.69153300  0.58338726    -0.89200
O1612       O  0.15643169  0.73353409  0.54960672    -0.92000
C1613       C  0.16763578  0.60228966  0.49998674     1.01800
C1614       C  0.25014693  0.73116427  0.50594763     1.14700
C1615       C  0.22648180  0.63159077  0.57625662     1.05500
O1616       O  0.10467564  0.57317694  0.58072050    -0.94100
O1617       O  0.12136393  0.64591294  0.60893101    -0.89900
O1618       O  0.08905733  0.67044906  0.59806324    -0.83000
C1619       C  0.09986935  0.65758661  0.61161239     1.12100
O1620       O  0.26693503  0.76556637  0.57558885    -0.96100
Zr1621     Zr  0.20321071  0.73978986  0.57024107     1.88900
O1622       O  0.11602715  0.73992280  0.57787818    -0.72800
O1623       O  0.15451112  0.61546124  0.61345834    -0.52000
O1624       O  0.21513818  0.74172906  0.60505732    -0.96700
O1625       O  0.23840100  0.79964226  0.55707323    -0.53900
O1626       O  0.17571071  0.77215261  0.58328562    -0.73300
C1627       C  0.14417099  0.76752861  0.58373837     0.99100
O1628       O  0.03943345  0.65156987  0.56693497    -0.62100
O1629       O  0.14985257  0.70155279  0.48316520    -0.56900
O1630       O  0.07423021  0.70553713  0.54223808    -0.93600
O1631       O  0.10974741  0.72800020  0.51540283    -0.92000
O1632       O  0.07695877  0.61110877  0.49841674    -0.92400
O1633       O  0.04407798  0.57872004  0.52963163    -0.91200
C1634       C  0.08137759  0.72078948  0.52562441     1.17900
H1635       H  0.16597918  0.66011993  0.50192891     0.33800
H1636       H  0.07861752  0.61012482  0.56660313     0.44700
H1637       H  0.15523872  0.75506923  0.54859357     0.38200
H1638       H  0.22455366  0.68991053  0.57614088     0.34700
H1639       H  0.07883693  0.53912180  0.52419135     0.26500
H1640       H  0.15867124  0.59523569  0.61158098     0.32400
H1641       H  0.21864173  0.76494345  0.60952226     0.38300
H1642       H  0.07325897  0.58932971  0.49170162     0.32800
H1643       H  0.12368305  0.68608357  0.48285519     0.31700
H1644       H  0.18071321  0.79116843  0.51701925     0.33400
H1645       H  0.22081173  0.80672798  0.55329348     0.32300
H1646       H  0.03846587  0.56831679  0.54286745     0.36300
H1647       H  0.03048707  0.63982172  0.55416917     0.29100
H1648       H  0.27550132  0.67021007  0.53111713     0.33300
H1649       H  0.27367080  0.78554913  0.58475564     0.36100
H1650       H  0.15433568  0.72357191  0.47644629     0.28700
H1651       H  0.03442495  0.63176426  0.57590133     0.41600
H1652       H  0.11565455  0.56149140  0.57345103     0.31700
H1653       H  0.11392672  0.55208184  0.53605545     0.39300
H1654       H  0.24767224  0.79641219  0.54452331     0.31100
H1655       H  0.17687234  0.63465437  0.61915613     0.31200
H1656       H  0.28133762  0.69826862  0.54744123     0.31500
C1657       C  0.24797065  0.62132517  0.58694423    -0.12800
C1658       C  0.24749814  0.60235569  0.59975592    -0.14400
C1659       C  0.14037729  0.79643370  0.58997628    -0.12800
C1660       C  0.13926685  0.82241300  0.59439406    -0.14400
C1661       C  0.17646430  0.58254539  0.46501357    -0.12800
C1662       C  0.17360151  0.59007359  0.48162867    -0.14400
C1663       C  0.07806532  0.90227813  0.53818048    -0.12800
C1664       C  0.08822652  0.90983269  0.55482354    -0.14400
C1665       C  0.12227710  0.86850211  0.43314818    -0.12800
C1666       C  0.14109078  0.88734592  0.42038253    -0.14400
C1667       C  0.31569777  0.66933930  0.42373233    -0.12800
C1668       C  0.34217121  0.69571433  0.42833807    -0.14400
C1669       C  0.03204731  0.73927295  0.51667497    -0.12800
C1670       C  0.05481338  0.73045639  0.51899432    -0.14400
C1671       C  0.28862946  0.75187873  0.50190875    -0.12800
C1672       C  0.32016236  0.76088459  0.49938300    -0.14400
C1673       C  0.07718488  0.65351194  0.64791915    -0.12800
C1674       C  0.08778314  0.65635303  0.63133603    -0.14400
C1675       C  0.02969532  0.76885810  0.66872377    -0.12800
C1676       C  0.05228424  0.80036525  0.66633367    -0.14400
C1677       C  0.28714393  0.51172149  0.68299583    -0.12800
C1678       C  0.31867760  0.53434826  0.68537164    -0.14400
C1679       C  0.17294943  0.56950421  0.72183796    -0.12800
C1680       C  0.17038772  0.55917271  0.70521729    -0.14400
C1681       C  0.12039179  0.72972111  0.75357590    -0.12800
C1682       C  0.13873680  0.72944742  0.76658221    -0.14400
C1683       C  0.31184233  0.62154632  0.76149394    -0.12800
C1684       C  0.33835268  0.62166219  0.75687053    -0.14400
C1685       C  0.27808538  0.88835159  0.10019073    -0.12800
C1686       C  0.27787603  0.86938658  0.08743551    -0.14400
C1687       C  0.38614845  0.69651613  0.09118574    -0.12800
C1688       C  0.38629882  0.67013626  0.09572694    -0.14400
C1689       C  0.43893070  0.83656001  0.13212792    -0.12800
C1690       C  0.44909961  0.83871484  0.14875287    -0.14400
C1691       C  0.49503213  0.72243576  0.16945087    -0.12800
C1692       C  0.47248313  0.69089608  0.16725736    -0.14400
C1693       C  0.20788877  0.95565077  0.18698026    -0.12800
C1694       C  0.23934100  0.97849447  0.18459920    -0.14400
C1695       C  0.10676624  0.93101315  0.31515779    -0.12800
C1696       C  0.09884642  0.92055941  0.29857189    -0.14400
C1697       C  0.42033745  0.83841987  0.37161251    -0.12800
C1698       C  0.42864397  0.83618220  0.38815454    -0.14400
C1699       C  0.35495605  0.93150279  0.20476391    -0.12800
C1700       C  0.35235333  0.92063875  0.22129690    -0.14400
C1701       C  0.38669352  0.76034950  0.26666396    -0.12800
C1702       C  0.40558858  0.76060996  0.25384432    -0.14400
C1703       C  0.21231797  0.86738325  0.26244611    -0.12800
C1704       C  0.18581181  0.86761056  0.25826821    -0.14400
C1705       C  0.25712606  0.72160788  0.35048682    -0.12800
C1706       C  0.24846738  0.69013887  0.35282599    -0.14400
C1707       C  0.26914709  0.97717748  0.33561055    -0.12800
C1708       C  0.27785194  0.95442583  0.33312528    -0.14400
C1709       C  0.41821845  0.56046553  0.81485378    -0.12800
C1710       C  0.42560787  0.57055332  0.79818057    -0.14400
C1711       C  0.25689105  0.51319904  0.83637413    -0.12800
C1712       C  0.24776947  0.53567989  0.83389907    -0.14400
C1713       C  0.26893288  0.76915114  0.85117555    -0.12800
C1714       C  0.27817411  0.80075792  0.85370199    -0.14400
C1715       C  0.35586495  0.90384412  0.98212906    -0.12800
C1716       C  0.35314783  0.91126034  0.96545752    -0.14400
C1717       C  0.43837307  0.58410867  0.05528614    -0.12800
C1718       C  0.44927543  0.59227543  0.03881093    -0.14400
C1719       C  0.10662673  0.65388534  0.87206322    -0.12800
C1720       C  0.09891856  0.65681315  0.88864235    -0.14400
C1721       C  0.40516791  0.62290001  0.93359324    -0.12800
C1722       C  0.38668764  0.60397934  0.92070342    -0.14400
C1723       C  0.18677062  0.79645219  0.92879278    -0.12800
C1724       C  0.21340498  0.82310695  0.92469537    -0.14400
C1725       C  0.49759237  0.75599551  0.01730911    -0.12800
C1726       C  0.47483786  0.76472646  0.01979493    -0.14400
C1727       C  0.24002195  0.74102853  0.00262675    -0.12800
C1728       C  0.20847576  0.73208634  0.00020544    -0.14400
Zr1729     Zr  0.49084933  0.16755492  0.98405223     2.17500
O1730       O  0.95177183  0.19269226  0.98666500    -0.50900
O1731       O  0.95832701  0.12242204  0.00921520    -0.74100
O1732       O  0.93958195  0.14130856  0.96238839    -0.80900
O1733       O  0.54842014  0.24712974  0.01078297    -0.82600
O1734       O  0.96104481  0.13139840  0.93444384    -0.78200
O1735       O  0.99342379  0.20078802  0.01248489    -0.89900
O1736       O  0.49325921  0.09864883  0.01734468    -0.75800
O1737       O  0.49500392  0.11873965  0.97149239    -0.85300
O1738       O  0.53367692  0.16454368  0.00471842    -0.85000
O1739       O  0.51344372  0.18633991  0.95155939    -0.71800
O1740       O  0.54559896  0.22382942  0.98188169    -0.83900
Zr1741     Zr  0.61297223  0.18544240  0.95661583     2.26400
Zr1742     Zr  0.51855209  0.13713946  0.93929909     2.06300
Zr1743     Zr  0.58778084  0.22006119  0.00268172     2.10000
Zr1744     Zr  0.53781315  0.11559873  0.99199171     1.78800
O1745       O  0.62704991  0.28024187  0.01430918    -0.92700
O1746       O  0.49393795  0.05341313  0.98607927    -0.40500
O1747       O  0.59250948  0.17097517  0.98971087    -0.77200
O1748       O  0.55935709  0.12921539  0.95893686    -0.95800
O1749       O  0.57244626  0.19242822  0.93680546    -0.89200
O1750       O  0.60978450  0.23469621  0.97031274    -0.92000
C1751       C  0.96654753  0.10382686  0.02034150     1.01800
C1752       C  0.51431038  0.23330384  0.01404019     1.14700
C1753       C  0.93703508  0.13301200  0.94429033     1.05500
O1754       O  0.50003553  0.07413376  0.93948038    -0.94100
O1755       O  0.55664262  0.14851929  0.91128341    -0.89900
O1756       O  0.61312977  0.17017174  0.92214158    -0.83000
C1757       C  0.58948830  0.15870334  0.90857745     1.12100
O1758       O  0.53255003  0.26835587  0.94455546    -0.96100
Zr1759     Zr  0.56898934  0.24090046  0.94989526     1.88900
O1760       O  0.65612300  0.24019640  0.94170591    -0.72800
O1761       O  0.49306159  0.11529094  0.90703925    -0.52000
O1762       O  0.55757094  0.24293968  0.91531119    -0.96700
O1763       O  0.59485647  0.30071686  0.96338993    -0.53900
O1764       O  0.62830559  0.27206582  0.93619891    -0.73300
C1765       C  0.65527586  0.26755769  0.93565408     0.99100
O1766       O  0.64384732  0.15179299  0.95289791    -0.62100
O1767       O  0.58436712  0.20358717  0.03683983    -0.56900
O1768       O  0.66362764  0.20645114  0.97757856    -0.93600
O1769       O  0.65073539  0.22910866  0.00440987    -0.92000
O1770       O  0.56977922  0.11482479  0.02095766    -0.92400
O1771       O  0.56477740  0.07834974  0.98864781    -0.91200
C1772       C  0.67178340  0.22178965  0.99416421     1.17900
H1773       H  0.52680438  0.16197982  0.01823271     0.33800
H1774       H  0.56320381  0.11077266  0.95367070     0.44700
H1775       H  0.63258977  0.25616940  0.97119133     0.38200
H1776       H  0.49754098  0.19111121  0.94402583     0.34700
H1777       H  0.49364107  0.04092483  0.99820459     0.26500
H1778       H  0.46895721  0.09475117  0.90912420     0.32400
H1779       H  0.57719319  0.26609494  0.91074778     0.38300
H1780       H  0.55307522  0.09253923  0.02775952     0.32800
H1781       H  0.60937318  0.21255829  0.04074779     0.31700
H1782       H  0.64158229  0.29308978  0.00282379     0.33400
H1783       H  0.62003536  0.30811702  0.96602008     0.32300
H1784       H  0.58952123  0.09486730  0.98452533     0.36300
H1785       H  0.64235534  0.14113407  0.96585181     0.29100
H1786       H  0.92759919  0.17265953  0.98934127     0.33300
H1787       H  0.54665013  0.28883738  0.93584114     0.36100
H1788       H  0.57742492  0.21927079  0.04368104     0.28700
H1789       H  0.62822471  0.13125898  0.94453453     0.41600
H1790       H  0.47897360  0.06295090  0.94806769     0.31700
H1791       H  0.47067728  0.05246364  0.98599081     0.39300
H1792       H  0.58405911  0.29738749  0.97647512     0.31100
H1793       H  0.48918493  0.13394150  0.90120474     0.31200
H1794       H  0.95067320  0.20125563  0.97345687     0.31500
Zr1795     Zr  0.84328676  0.01901432  0.86944881     2.17500
O1796       O  0.81839096  0.05837559  0.86654593    -0.50900
O1797       O  0.88836099  0.05067870  0.84433827    -0.74100
O1798       O  0.86872236  0.07030267  0.89157240    -0.80900
O1799       O  0.76305936  0.46125416  0.84386026    -0.82600
O1800       O  0.87858665  0.04889690  0.91953964    -0.78200
O1801       O  0.81000977  0.01686874  0.84145763    -0.89900
O1802       O  0.91171580  0.01580159  0.83614333    -0.75800
O1803       O  0.89253911  0.51534447  0.88200593    -0.85300
O1804       O  0.84612139  0.47605494  0.84895057    -0.85000
O1805       O  0.82506070  0.49725194  0.90209248    -0.71800
O1806       O  0.78748620  0.46458279  0.87211111    -0.83900
Zr1807     Zr  0.82569979  0.39745105  0.89752982     2.26400
Zr1808     Zr  0.87443469  0.49233508  0.91433479     2.06300
Zr1809     Zr  0.79057997  0.42197456  0.85144718     2.10000
Zr1810     Zr  0.89528481  0.47217058  0.86160361     1.78800
O1811       O  0.72993309  0.38275768  0.84048446    -0.92700
O1812       O  0.95764472  0.51646248  0.86685744    -0.40500
O1813       O  0.83986694  0.41753618  0.86434884    -0.77200
O1814       O  0.88201271  0.45110223  0.89481606    -0.95800
O1815       O  0.81917811  0.43847932  0.91717091    -0.89200
O1816       O  0.77634003  0.40057478  0.88390734    -0.92000
C1817       C  0.90634482  0.04182511  0.83308561     1.01800
C1818       C  0.77634551  0.49530733  0.84056834     1.14700
C1819       C  0.87685027  0.07282986  0.90970249     1.05500
O1820       O  0.93755887  0.51139559  0.91384177    -0.94100
O1821       O  0.86322450  0.45493607  0.94269679    -0.89900
O1822       O  0.84047858  0.39805816  0.93225077    -0.83000
C1823       C  0.85239160  0.42201590  0.94567795     1.12100
O1824       O  0.74392512  0.47900462  0.90973233    -0.96100
Zr1825     Zr  0.77059219  0.44187914  0.90418967     1.88900
O1826       O  0.77075926  0.35467789  0.91251090    -0.72800
O1827       O  0.89903805  0.51960063  0.94592204    -0.52000
O1828       O  0.77035520  0.45408644  0.93882094    -0.96700
O1829       O  0.71086389  0.41830603  0.89092999    -0.53900
O1830       O  0.73878671  0.38250273  0.91774932    -0.73300
C1831       C  0.74331612  0.35555023  0.91842956     0.99100
O1832       O  0.85923257  0.36652861  0.90145275    -0.62100
O1833       O  0.80592716  0.42415459  0.81715765    -0.56900
O1834       O  0.80488107  0.34644414  0.87661535    -0.93600
O1835       O  0.78138741  0.35887216  0.84999232    -0.92000
O1836       O  0.89546062  0.43961715  0.83274799    -0.92400
O1837       O  0.93287736  0.44543266  0.86418549    -0.91200
C1838       C  0.78905041  0.33796518  0.86013872     1.17900
H1839       H  0.84841630  0.48263059  0.83539577     0.33800
H1840       H  0.90054838  0.44738128  0.90006377     0.44700
H1841       H  0.75478373  0.37783551  0.88306620     0.38200
H1842       H  0.81993081  0.51305867  0.90947073     0.34700
H1843       H  0.96969095  0.51697039  0.85451054     0.26500
H1844       H  0.91819635  0.54421693  0.94329752     0.32400
H1845       H  0.74928532  0.43283654  0.94414789     0.38300
H1846       H  0.91587533  0.45714738  0.82492435     0.32800
H1847       H  0.79105816  0.39940520  0.81251338     0.31700
H1848       H  0.71592537  0.37410720  0.85264503     0.33400
H1849       H  0.70216937  0.39275169  0.88865735     0.32300
H1850       H  0.91747780  0.42188308  0.87017124     0.36300
H1851       H  0.87044453  0.36848129  0.88861366     0.29100
H1852       H  0.83856326  0.08254245  0.86404130     0.33300
H1853       H  0.72438935  0.46577125  0.91914060     0.36100
H1854       H  0.79556072  0.43740965  0.81085719     0.28700
H1855       H  0.87938700  0.38192907  0.91009592     0.41600
H1856       H  0.94794308  0.03219310  0.90424151     0.31700
H1857       H  0.95840110  0.53962397  0.86719197     0.39300
H1858       H  0.71449286  0.42861352  0.87769835     0.31100
H1859       H  0.88018586  0.52215257  0.95257104     0.31200
H1860       H  0.80925005  0.05941094  0.87960289     0.31500
Zr1861     Zr  0.84322577  0.30230658  0.31707361     2.17500
O1862       O  0.81920544  0.23825243  0.32022438    -0.50900
O1863       O  0.88890355  0.31567048  0.34189516    -0.74100
O1864       O  0.86863864  0.27668020  0.29494564    -0.80900
O1865       O  0.76342032  0.28013613  0.34339563    -0.82600
O1866       O  0.87760276  0.30701190  0.26666693    -0.78200
O1867       O  0.81055222  0.27204433  0.34541635    -0.89900
O1868       O  0.91317956  0.37417095  0.34955025    -0.75800
O1869       O  0.89165285  0.35483491  0.30396430    -0.85300
O1870       O  0.84651402  0.34859186  0.33751806    -0.85000
O1871       O  0.82368635  0.30493704  0.28453833    -0.71800
O1872       O  0.78681193  0.30051052  0.31495279    -0.83900
Zr1873     Zr  0.82473859  0.40555801  0.28928255     2.26400
Zr1874     Zr  0.87246235  0.35892801  0.27171820     2.06300
Zr1875     Zr  0.79066843  0.34671478  0.33554237     2.10000
Zr1876     Zr  0.89528952  0.40117194  0.32431217     1.78800
O1877       O  0.73097797  0.32770129  0.34737868    -0.92700
O1878       O  0.95699309  0.41882162  0.31732925    -0.40500
O1879       O  0.83967121  0.40026095  0.32239995    -0.77200
O1880       O  0.88093226  0.40803366  0.29118781    -0.95800
O1881       O  0.81729430  0.35772513  0.26956073    -0.89200
O1882       O  0.77566716  0.35336774  0.30316423    -0.92000
C1883       C  0.90757208  0.34276425  0.35286238     1.01800
C1884       C  0.77744530  0.26007511  0.34688456     1.14700
C1885       C  0.87639084  0.28182714  0.27678051     1.05500
O1886       O  0.93600248  0.40124519  0.27195724    -0.94100
O1887       O  0.86200110  0.38716540  0.24392041    -0.89900
O1888       O  0.83881268  0.42069667  0.25477047    -0.83000
C1889       C  0.85088449  0.40914130  0.24120932     1.12100
O1890       O  0.74226536  0.24211898  0.27746266    -0.96100
Zr1891     Zr  0.76919215  0.30593050  0.28296636     1.88900
O1892       O  0.77010652  0.39351251  0.27401160    -0.72800
O1893       O  0.89164209  0.35483963  0.23881276    -0.52000
O1894       O  0.76560421  0.29201797  0.24834968    -0.96700
O1895       O  0.71008874  0.27172138  0.29717128    -0.53900
O1896       O  0.73758621  0.33358608  0.26943253    -0.73300
C1897       C  0.74248726  0.36514647  0.26834862     0.99100
O1898       O  0.85973098  0.47012932  0.28664034    -0.62100
O1899       O  0.80601948  0.35910744  0.36988172    -0.56900
O1900       O  0.80351637  0.43563865  0.30972532    -0.93600
O1901       O  0.78166010  0.40070003  0.33679181    -0.92000
O1902       O  0.89969229  0.43381923  0.35401829    -0.92400
O1903       O  0.92975048  0.46571489  0.32136620    -0.91200
C1904       C  0.78857330  0.42878183  0.32640827     1.17900
H1905       H  0.84952123  0.34473272  0.35104507     0.33800
H1906       H  0.89923147  0.43004459  0.28564467     0.44700
H1907       H  0.75424330  0.35481081  0.30403053     0.38200
H1908       H  0.81851654  0.28391285  0.27723506     0.34700
H1909       H  0.97036703  0.43250984  0.32894244     0.26500
H1910       H  0.91164314  0.35023290  0.24030052     0.32400
H1911       H  0.74149939  0.28658695  0.24433754     0.38300
H1912       H  0.92353650  0.44094634  0.35934116     0.32800
H1913       H  0.78863582  0.36540489  0.37512482     0.31700
H1914       H  0.71738313  0.32674051  0.33559381     0.33400
H1915       H  0.70489176  0.28972463  0.30264956     0.32300
H1916       H  0.94326161  0.47043283  0.30906015     0.36300
H1917       H  0.87211506  0.47805842  0.29932873     0.29100
H1918       H  0.83965013  0.23465509  0.32272741     0.33300
H1919       H  0.72032216  0.23513113  0.26989314     0.36100
H1920       H  0.79887212  0.33558757  0.37565040     0.28700
H1921       H  0.87894031  0.47489634  0.27727336     0.41600
H1922       H  0.94646657  0.39019785  0.28022376     0.31700
H1923       H  0.95807793  0.39661230  0.31799353     0.39300
H1924       H  0.71336346  0.26002794  0.30873051     0.31100
H1925       H  0.87206126  0.33263507  0.23321068     0.31200
H1926       H  0.81001460  0.22780871  0.30721783     0.31500
Zr1927     Zr  0.49072254  0.30299699  0.20274973     2.17500
O1928       O  0.95244211  0.23866273  0.20118232    -0.50900
O1929       O  0.95890329  0.31637155  0.17759484    -0.74100
O1930       O  0.93922943  0.27830442  0.22464481    -0.80900
O1931       O  0.54830371  0.28123063  0.17627901    -0.82600
O1932       O  0.96147932  0.30693751  0.25330027    -0.78200
O1933       O  0.99281143  0.27381765  0.17410484    -0.89900
O1934       O  0.49229758  0.37503165  0.17069552    -0.75800
O1935       O  0.49471547  0.35553286  0.21587528    -0.85300
O1936       O  0.53356950  0.34946208  0.18236534    -0.85000
O1937       O  0.51321323  0.30567878  0.23515667    -0.71800
O1938       O  0.54553200  0.30150165  0.20463423    -0.83900
Zr1939     Zr  0.61258969  0.40594908  0.23069879     2.26400
Zr1940     Zr  0.51808526  0.35953482  0.24803264     2.06300
Zr1941     Zr  0.58761442  0.34779514  0.18405152     2.10000
Zr1942     Zr  0.53761053  0.40207231  0.19573566     1.78800
O1943       O  0.62661092  0.32809242  0.17041622    -0.92700
O1944       O  0.49467196  0.42082832  0.20356592    -0.40500
O1945       O  0.59226693  0.40112217  0.19762729    -0.77200
O1946       O  0.55905676  0.40877310  0.22879156    -0.95800
O1947       O  0.57204661  0.35812282  0.25026497    -0.89200
O1948       O  0.60952891  0.35402290  0.21637300    -0.92000
C1949       C  0.96701268  0.34379592  0.16699090     1.01800
C1950       C  0.51423859  0.26119795  0.17280615     1.14700
C1951       C  0.93717778  0.28239790  0.24301123     1.05500
O1952       O  0.49747735  0.40233314  0.24687124    -0.94100
O1953       O  0.55615759  0.38730145  0.27602190    -0.89900
O1954       O  0.61308088  0.42005290  0.26539033    -0.83000
C1955       C  0.58928168  0.40881184  0.27884926     1.12100
O1956       O  0.53208125  0.24251417  0.24066338    -0.96100
Zr1957     Zr  0.56872675  0.30665300  0.23655480     1.88900
O1958       O  0.65572682  0.39386111  0.24517782    -0.72800
O1959       O  0.49271845  0.35612319  0.28029949    -0.52000
O1960       O  0.55783182  0.29270248  0.27111966    -0.96700
O1961       O  0.59493681  0.27328133  0.22273885    -0.53900
O1962       O  0.62787986  0.33410218  0.25027182    -0.73300
C1963       C  0.65484944  0.36550154  0.25094580     0.99100
O1964       O  0.64293527  0.47035565  0.23443676    -0.62100
O1965       O  0.58414806  0.36210118  0.15009037    -0.56900
O1966       O  0.66360513  0.43633334  0.21017679    -0.93600
O1967       O  0.65084745  0.40134406  0.18312204    -0.92000
O1968       O  0.56560385  0.43432703  0.16592180    -0.92400
O1969       O  0.56858578  0.46673768  0.19801365    -0.91200
C1970       C  0.67185881  0.42945049  0.19354847     1.17900
H1971       H  0.52666580  0.34568196  0.16884238     0.33800
H1972       H  0.56291540  0.43081851  0.23439330     0.44700
H1973       H  0.63231665  0.35531397  0.21539373     0.38200
H1974       H  0.49747834  0.28458183  0.24241842     0.34700
H1975       H  0.49489150  0.43475582  0.19209707     0.26500
H1976       H  0.46806448  0.35102856  0.27820964     0.32400
H1977       H  0.57638803  0.28717616  0.27524159     0.38300
H1978       H  0.54698474  0.43712161  0.15917993     0.32800
H1979       H  0.60582555  0.38543180  0.14802253     0.31700
H1980       H  0.63760251  0.32363883  0.18190826     0.33400
H1981       H  0.61955870  0.29143250  0.21925684     0.32300
H1982       H  0.56156536  0.47208358  0.21073490     0.36300
H1983       H  0.63927129  0.47915438  0.22183625     0.29100
H1984       H  0.92808343  0.23391605  0.19838037     0.33300
H1985       H  0.54538774  0.23573471  0.24975902     0.36100
H1986       H  0.58838063  0.34513806  0.14253726     0.28700
H1987       H  0.62828755  0.47493860  0.24375610     0.41600
H1988       H  0.47240219  0.38832528  0.24267702     0.31700
H1989       H  0.47116097  0.39888453  0.20300448     0.39300
H1990       H  0.58284325  0.26453204  0.21004009     0.31100
H1991       H  0.49021044  0.33433382  0.28641724     0.31200
H1992       H  0.95154651  0.22959523  0.21452796     0.31500
Zr1993     Zr  0.81947896  0.47378927  0.15063911     2.17500
O1994       O  0.75510050  0.43416321  0.15255973    -0.50900
O1995       O  0.83268801  0.44173951  0.17570035    -0.74100
O1996       O  0.79466657  0.42264271  0.12864519    -0.80900
O1997       O  0.79783482  0.03091093  0.17730924    -0.82600
O1998       O  0.82396571  0.44464647  0.10018395    -0.78200
O1999       O  0.78967831  0.47530965  0.17929717    -0.89900
O2000       O  0.89135061  0.47544061  0.18316217    -0.75800
O2001       O  0.87279535  0.97821392  0.13763493    -0.85300
O2002       O  0.86644601  0.01695154  0.17125111    -0.85000
O2003       O  0.82277954  0.99673640  0.11841579    -0.71800
O2004       O  0.81821402  0.02864246  0.14894294    -0.83900
Zr2005     Zr  0.92315264  0.09610810  0.12316810     2.26400
Zr2006     Zr  0.87672855  0.00185499  0.10555009     2.06300
Zr2007     Zr  0.86438707  0.07082394  0.16953198     2.10000
Zr2008     Zr  0.91914975  0.02096751  0.15798137     1.78800
O2009       O  0.84345513  0.11000849  0.18130009    -0.92700
O2010       O  0.93769273  0.97762585  0.15068037    -0.40500
O2011       O  0.91788660  0.07548589  0.15616243    -0.77200
O2012       O  0.92588138  0.04253058  0.12494959    -0.95800
O2013       O  0.87522648  0.05571762  0.10354133    -0.89200
O2014       O  0.87103284  0.09301450  0.13727464    -0.92000
C2015       C  0.85985140  0.44986651  0.18656275     1.01800
C2016       C  0.77805937  0.49666027  0.18117428     1.14700
C2017       C  0.79931116  0.42037373  0.11038047     1.05500
O2018       O  0.91989652  0.98165892  0.10577914    -0.94100
O2019       O  0.90495749  0.04002510  0.07775577    -0.89900
O2020       O  0.93702747  0.09699716  0.08840402    -0.83000
C2021       C  0.92608595  0.07318963  0.07494419     1.12100
O2022       O  0.75934389  0.01566307  0.11307537    -0.96100
Zr2023     Zr  0.82356829  0.05217217  0.11711688     1.88900
O2024       O  0.91142089  0.13916291  0.10844000    -0.72800
O2025       O  0.87189684  0.97766021  0.07278806    -0.52000
O2026       O  0.80870580  0.04060774  0.08269137    -0.96700
O2027       O  0.79039542  0.07902188  0.13051208    -0.53900
O2028       O  0.85174820  0.11082820  0.10282648    -0.73300
C2029       C  0.88311476  0.13783702  0.10218093     0.99100
O2030       O  0.98754996  0.12573102  0.11943674    -0.62100
O2031       O  0.87713184  0.06748507  0.20376115    -0.56900
O2032       O  0.95333211  0.14697238  0.14396649    -0.93600
O2033       O  0.91810489  0.13402603  0.17092842    -0.92000
O2034       O  0.95294008  0.05134932  0.18700565    -0.92400
O2035       O  0.98375335  0.05062049  0.15536436    -0.91200
C2036       C  0.94631372  0.15515017  0.16059913     1.17900
H2037       H  0.86257457  0.01011050  0.18477701     0.33800
H2038       H  0.94790337  0.04638613  0.11932866     0.44700
H2039       H  0.87237288  0.11583517  0.13817820     0.38200
H2040       H  0.80109429  0.48092570  0.11103283     0.34700
H2041       H  0.95121054  0.97770852  0.16231934     0.26500
H2042       H  0.86635695  0.95275243  0.07426259     0.32400
H2043       H  0.80150493  0.05805541  0.07879996     0.38300
H2044       H  0.95854751  0.03420298  0.19327659     0.32800
H2045       H  0.89493790  0.09219210  0.20732635     0.31700
H2046       H  0.83049970  0.11248682  0.17009810     0.33400
H2047       H  0.80867072  0.10333168  0.13443710     0.32300
H2048       H  0.98868534  0.04479286  0.14220615     0.36300
H2049       H  0.99608290  0.12070316  0.13175073     0.29100
H2050       H  0.75099410  0.40993954  0.15506440     0.33300
H2051       H  0.75222079  0.02974332  0.10481189     0.36100
H2052       H  0.85521702  0.06291449  0.21065222     0.28700
H2053       H  0.99186423  0.11173489  0.10953346     0.41600
H2054       H  0.90559534  0.45721445  0.11220477     0.31700
H2055       H  0.91239855  0.45204264  0.15103120     0.39300
H2056       H  0.78052188  0.06642955  0.14296716     0.31100
H2057       H  0.85018899  0.97598576  0.06702900     0.31200
H2058       H  0.74552848  0.43334245  0.13935143     0.31500
Zr2059     Zr  0.82054506  0.32713442  0.03621625     2.17500
O2060       O  0.75653200  0.30347835  0.03311707    -0.50900
O2061       O  0.83466672  0.37339231  0.01165235    -0.74100
O2062       O  0.79526163  0.35266289  0.05851294    -0.80900
O2063       O  0.79866198  0.24773012  0.00949632    -0.82600
O2064       O  0.82445373  0.35977859  0.08703782    -0.78200
O2065       O  0.78972535  0.29442699  0.00800488    -0.89900
O2066       O  0.89307800  0.39713865  0.00388239    -0.75800
O2067       O  0.87292567  0.37529504  0.04954754    -0.85300
O2068       O  0.86690072  0.33059014  0.01581899    -0.85000
O2069       O  0.82283328  0.30691651  0.06859309    -0.71800
O2070       O  0.81887771  0.27078987  0.03805164    -0.83900
Zr2071     Zr  0.92317934  0.30744590  0.06404782     2.26400
Zr2072     Zr  0.87675422  0.35551351  0.08159480     2.06300
Zr2073     Zr  0.86512296  0.27479670  0.01747880     2.10000
Zr2074     Zr  0.91942625  0.37905309  0.02937520     1.78800
O2075       O  0.84473119  0.21459554  0.00601906    -0.92700
O2076       O  0.93514436  0.43984109  0.03753110    -0.40500
O2077       O  0.91851233  0.32341052  0.03108858    -0.77200
O2078       O  0.92610922  0.36388835  0.06233345    -0.95800
O2079       O  0.87526447  0.30011859  0.08368810    -0.89200
O2080       O  0.87102423  0.25884568  0.04977266    -0.92000
C2081       C  0.86174072  0.39184714  0.00064288     1.01800
C2082       C  0.77821557  0.26142700  0.00635514     1.14700
C2083       C  0.79975021  0.35935728  0.07681572     1.05500
O2084       O  0.91769233  0.41926890  0.08052834    -0.94100
O2085       O  0.90654518  0.34735964  0.10925294    -0.89900
O2086       O  0.93768598  0.32135411  0.09869590    -0.83000
C2087       C  0.92740393  0.33497607  0.11208352     1.12100
O2088       O  0.75978449  0.22676015  0.07537639    -0.96100
Zr2089     Zr  0.82349249  0.25228989  0.06995085     1.88900
O2090       O  0.91048169  0.25223951  0.07862223    -0.72800
O2091       O  0.87233023  0.37412408  0.11459254    -0.52000
O2092       O  0.80974833  0.24794849  0.10460917    -0.96700
O2093       O  0.78752422  0.19323186  0.05591352    -0.53900
O2094       O  0.85054799  0.21981067  0.08307014    -0.73300
C2095       C  0.88206365  0.22456295  0.08407500     0.99100
O2096       O  0.98766709  0.33988297  0.06787108    -0.62100
O2097       O  0.87798103  0.29103922  0.98326977    -0.56900
O2098       O  0.95321910  0.28640955  0.04330180    -0.93600
O2099       O  0.91948973  0.26643545  0.01570168    -0.92000
O2100       O  0.95352555  0.38395835  0.00022842    -0.92400
O2101       O  0.98361358  0.41591712  0.03289224    -0.91200
C2102       C  0.94714468  0.27263821  0.02630661     1.17900
H2103       H  0.86308552  0.33368026  0.00229704     0.33800
H2104       H  0.94814573  0.38212179  0.06794521     0.44700
H2105       H  0.87226119  0.23733556  0.04869094     0.38200
H2106       H  0.80168806  0.30156344  0.07581350     0.34700
H2107       H  0.94976612  0.45432090  0.02643855     0.26500
H2108       H  0.86881224  0.39482961  0.11318327     0.32400
H2109       H  0.80383642  0.22358187  0.10834195     0.38300
H2110       H  0.93754664  0.36272317  0.99240855     0.32800
H2111       H  0.89853009  0.28786216  0.98028351     0.31700
H2112       H  0.84364346  0.20114225  0.01788505     0.33400
H2113       H  0.80479263  0.18573732  0.05211977     0.32300
H2114       H  0.99167817  0.39921660  0.03693768     0.36300
H2115       H  0.99712404  0.35022249  0.05489354     0.29100
H2116       H  0.75301583  0.32403884  0.03088448     0.33300
H2117       H  0.75241956  0.20531561  0.08346070     0.36100
H2118       H  0.85783592  0.27154809  0.97615571     0.28700
H2119       H  0.99289685  0.36068743  0.07607737     0.41600
H2120       H  0.90272635  0.42947396  0.07665102     0.31700
H2121       H  0.91277315  0.44054477  0.03638013     0.39300
H2122       H  0.77880898  0.19728510  0.04338780     0.31100
H2123       H  0.84959894  0.35495721  0.11993398     0.31200
H2124       H  0.74612421  0.29397240  0.04608156     0.31500
Zr2125     Zr  0.68304070  0.18852207  0.81758065     2.17500
O2126       O  0.70874186  0.25300143  0.81937888    -0.50900
O2127       O  0.63865008  0.17565313  0.84300273    -0.74100
O2128       O  0.65674392  0.21376423  0.79583353    -0.80900
O2129       O  0.76288353  0.21105432  0.84380322    -0.82600
O2130       O  0.64655134  0.18233183  0.76788033    -0.78200
O2131       O  0.71605539  0.21972779  0.84566231    -0.89900
O2132       O  0.61303679  0.11684109  0.85030243    -0.75800
O2133       O  0.63406671  0.13565360  0.80500250    -0.85300
O2134       O  0.67999373  0.14255588  0.83814521    -0.85000
O2135       O  0.70147481  0.18488849  0.78497951    -0.71800
O2136       O  0.73933510  0.19018252  0.81530582    -0.83900
Zr2137     Zr  0.70116218  0.08498344  0.78979462     2.26400
Zr2138     Zr  0.65223723  0.13073791  0.77267212     2.06300
Zr2139     Zr  0.73575565  0.14445244  0.83606340     2.10000
Zr2140     Zr  0.63113948  0.08954528  0.82529555     1.78800
O2141       O  0.79612832  0.16557451  0.84742950    -0.92700
O2142       O  0.56891079  0.06947630  0.81818700    -0.40500
O2143       O  0.68680039  0.09075989  0.82295159    -0.77200
O2144       O  0.64478097  0.08207614  0.79213674    -0.95800
O2145       O  0.70767047  0.13242315  0.77012160    -0.89200
O2146       O  0.75022658  0.13739661  0.80357804    -0.92000
C2147       C  0.61943150  0.14849359  0.85378159     1.01800
C2148       C  0.74911182  0.23137569  0.84718943     1.14700
C2149       C  0.64838121  0.20801524  0.77775950     1.05500
O2150       O  0.58908445  0.08672847  0.77327120    -0.94100
O2151       O  0.66246991  0.10315229  0.74458680    -0.89900
O2152       O  0.68649624  0.07021427  0.75517736    -0.83000
C2153       C  0.67390388  0.08149004  0.74172865     1.12100
O2154       O  0.78228015  0.24846793  0.77979489    -0.96100
Zr2155     Zr  0.75618513  0.18431331  0.78319887     1.88900
O2156       O  0.75578758  0.09675943  0.77458956    -0.72800
O2157       O  0.63172738  0.13555998  0.74022959    -0.52000
O2158       O  0.75805152  0.19828273  0.74870477    -0.96700
O2159       O  0.81696086  0.21826412  0.79539284    -0.53900
O2160       O  0.78722419  0.15640464  0.76902977    -0.73300
C2161       C  0.78294210  0.12503147  0.76843276     0.99100
O2162       O  0.66676585  0.02041691  0.78681422    -0.62100
O2163       O  0.71994626  0.13224472  0.87038429    -0.56900
O2164       O  0.72302982  0.05573860  0.81053689    -0.93600
O2165       O  0.74460453  0.09045834  0.83775306    -0.92000
O2166       O  0.62907853  0.05829893  0.85514752    -0.92400
O2167       O  0.59788941  0.02483574  0.82328927    -0.91200
C2168       C  0.73779144  0.06246391  0.82729197     1.17900
H2169       H  0.67717783  0.14659275  0.85167188     0.33800
H2170       H  0.62651049  0.05991059  0.78671281     0.44700
H2171       H  0.77176841  0.13614137  0.80429259     0.38200
H2172       H  0.70627592  0.20565508  0.77754526     0.34700
H2173       H  0.55590921  0.05642018  0.83001581     0.26500
H2174       H  0.61177340  0.14013777  0.74209315     0.32400
H2175       H  0.78154459  0.20267444  0.74416334     0.38300
H2176       H  0.60674669  0.05344808  0.86165522     0.32800
H2177       H  0.70270457  0.10642845  0.87086358     0.31700
H2178       H  0.81008657  0.16931626  0.83537847     0.33400
H2179       H  0.82455748  0.20052284  0.79762945     0.32300
H2180       H  0.58711731  0.01917312  0.81013243     0.36300
H2181       H  0.65412385  0.01222039  0.79940766     0.29100
H2182       H  0.68899760  0.25751050  0.82227444     0.33300
H2183       H  0.80114590  0.25573242  0.76983608     0.36100
H2184       H  0.74156785  0.13481096  0.87674630     0.28700
H2185       H  0.64771313  0.01556064  0.77730986     0.41600
H2186       H  0.57796851  0.09776758  0.78101660     0.31700
H2187       H  0.56706784  0.09129446  0.81827159     0.39300
H2188       H  0.81456515  0.22584214  0.80864203     0.31100
H2189       H  0.65111740  0.15778108  0.73454281     0.31200
H2190       H  0.71689256  0.26231054  0.80606898     0.31500
Zr2191     Zr  0.53547250  0.18794787  0.70270358     2.17500
O2192       O  0.57593111  0.25210129  0.70044904    -0.50900
O2193       O  0.56717861  0.17492956  0.67733916    -0.74100
O2194       O  0.58637384  0.21258652  0.72497901    -0.80900
O2195       O  0.97724743  0.21001387  0.67630424    -0.82600
O2196       O  0.56421182  0.18256011  0.75322376    -0.78200
O2197       O  0.53420745  0.22037482  0.67516069    -0.89900
O2198       O  0.53370385  0.11630227  0.66972407    -0.75800
O2199       O  0.53143655  0.13525750  0.71547955    -0.85300
O2200       O  0.99194893  0.14156074  0.68182397    -0.85000
O2201       O  0.01257952  0.18417174  0.73504137    -0.71800
O2202       O  0.98021896  0.18923137  0.70453306    -0.83900
Zr2203     Zr  0.91298864  0.08447367  0.73021595     2.26400
Zr2204     Zr  0.00749176  0.13002094  0.74743833     2.06300
Zr2205     Zr  0.93798111  0.14328998  0.68382962     2.10000
Zr2206     Zr  0.98744789  0.08844201  0.69475317     1.78800
O2207       O  0.89841552  0.16303094  0.67111525    -0.92700
O2208       O  0.03140206  0.07012690  0.70051320    -0.40500
O2209       O  0.93294312  0.08955181  0.69705688    -0.77200
O2210       O  0.96634119  0.08126785  0.72790811    -0.95800
O2211       O  0.95391988  0.13207501  0.74985813    -0.89200
O2212       O  0.91636649  0.13676833  0.71624045    -0.92000
C2213       C  0.55919847  0.14788069  0.66641565     1.01800
C2214       C  0.51216259  0.23115039  0.67317860     1.14700
C2215       C  0.58847363  0.20762797  0.74322823     1.05500
O2216       O  0.02695413  0.08623688  0.74687166    -0.94100
O2217       O  0.96968522  0.10240139  0.77541508    -0.89900
O2218       O  0.91272228  0.06988182  0.76480500    -0.83000
C2219       C  0.93656966  0.08105516  0.77824569     1.12100
O2220       O  0.99743287  0.24724495  0.74221115    -0.96100
Zr2221     Zr  0.95743741  0.18394587  0.73653829     1.88900
O2222       O  0.87037061  0.09699252  0.74517615    -0.72800
O2223       O  0.03253048  0.13440638  0.77992749    -0.52000
O2224       O  0.96461495  0.19824257  0.77114569    -0.96700
O2225       O  0.93470773  0.21989610  0.72205917    -0.53900
O2226       O  0.89788405  0.15691700  0.74974119    -0.73300
C2227       C  0.87106912  0.12541726  0.75073063     0.99100
O2228       O  0.88209818  0.01999926  0.73392875    -0.62100
O2229       O  0.94160992  0.12975640  0.64972461    -0.56900
O2230       O  0.86199891  0.05460968  0.70949583    -0.93600
O2231       O  0.87490015  0.08962296  0.68246876    -0.92000
O2232       O  0.95430346  0.05544221  0.66606599    -0.92400
O2233       O  0.96076679  0.02425761  0.69801994    -0.91200
C2234       C  0.85382172  0.06151180  0.69284268     1.17900
H2235       H  0.99879407  0.14576421  0.66830503     0.30200
H2236       H  0.96240081  0.05901138  0.73324012     0.44700
H2237       H  0.89360784  0.13554291  0.71530383     0.38200
H2238       H  0.52854954  0.20560793  0.74251898     0.34700
H2239       H  0.03146126  0.05768891  0.68842912     0.26500
H2240       H  0.05689316  0.13850972  0.77807356     0.32400
H2241       H  0.98669789  0.19833274  0.77485226     0.38300
H2242       H  0.97179065  0.05289061  0.65799280     0.32800
H2243       H  0.92222862  0.10487405  0.64806740     0.31700
H2244       H  0.88407532  0.16236124  0.68248612     0.33400
H2245       H  0.91208360  0.20253680  0.71576648     0.32300
H2246       H  0.93542496  0.01565056  0.70092473     0.36300
H2247       H  0.88479756  0.01094323  0.72118001     0.29100
H2248       H  0.60012581  0.25582762  0.69835573     0.33300
H2249       H  0.98334201  0.25557516  0.74955659     0.36100
H2250       H  0.93354328  0.14403342  0.64236013     0.28700
H2251       H  0.89704443  0.01515292  0.74288524     0.41600
H2252       H  0.55131122  0.09964905  0.74054191     0.31700
H2253       H  0.55691726  0.09470037  0.70055209     0.39300
H2254       H  0.95093635  0.23241864  0.71105907     0.31100
H2255       H  0.53522655  0.15393988  0.78624355     0.31200
H2256       H  0.57636628  0.26202045  0.71350944     0.31500
Zr2257     Zr  0.53726471  0.32605061  0.48357313     2.17500
O2258       O  0.57794447  0.30262016  0.48647554    -0.50900
O2259       O  0.56893071  0.37134039  0.50859026    -0.74100
O2260       O  0.58829805  0.35139860  0.46155569    -0.80900
O2261       O  0.98006276  0.24643679  0.51015088    -0.82600
O2262       O  0.56700604  0.36099810  0.43347103    -0.78200
O2263       O  0.53549610  0.29310190  0.51161012    -0.89900
O2264       O  0.53422385  0.39502729  0.51648918    -0.75800
O2265       O  0.53298187  0.37465029  0.47083426    -0.85300
O2266       O  0.99400262  0.32875432  0.50407618    -0.85000
O2267       O  0.01489429  0.30659429  0.45106791    -0.71800
O2268       O  0.98252429  0.26922804  0.48144405    -0.83900
Zr2269     Zr  0.91520725  0.30693751  0.45578751     2.26400
Zr2270     Zr  0.00986227  0.35570073  0.43856319     2.06300
Zr2271     Zr  0.94009711  0.27294740  0.50205452     2.10000
Zr2272     Zr  0.98996105  0.37756104  0.49103483     1.78800
O2273       O  0.90036132  0.21276410  0.51347163    -0.92700
O2274       O  0.03382204  0.43925045  0.48387262    -0.40500
O2275       O  0.93537209  0.32193563  0.48890905    -0.77200
O2276       O  0.96860296  0.36340425  0.45796858    -0.95800
O2277       O  0.95608114  0.30020642  0.43609120    -0.89200
O2278       O  0.91857798  0.25792704  0.46964332    -0.92000
C2279       C  0.56013258  0.38951386  0.51971950     1.01800
C2280       C  0.51401574  0.26011622  0.51326091     1.14700
C2281       C  0.59087084  0.35933751  0.44344259     1.05500
O2282       O  0.03027884  0.41908701  0.43974434    -0.94100
O2283       O  0.97194426  0.34618576  0.41060012    -0.89900
O2284       O  0.91486869  0.32100687  0.42113699    -0.83000
C2285       C  0.93874311  0.33411604  0.40772452     1.12100
O2286       O  0.99631514  0.22449448  0.44446719    -0.96100
Zr2287     Zr  0.95965212  0.25187013  0.44937093     1.88900
O2288       O  0.87234448  0.25182900  0.44113566    -0.72800
O2289       O  0.03538878  0.37702439  0.40626079    -0.52000
O2290       O  0.97145520  0.24937944  0.41486966    -0.96700
O2291       O  0.93496992  0.19239111  0.46309742    -0.53900
O2292       O  0.90041621  0.22020923  0.43560017    -0.73300
C2293       C  0.87333758  0.22454206  0.43509248     0.99100
O2294       O  0.88413113  0.34028728  0.45183897    -0.62100
O2295       O  0.94187523  0.28804345  0.53636773    -0.56900
O2296       O  0.86398531  0.28572387  0.47641521    -0.93600
O2297       O  0.87674875  0.26320093  0.50331796    -0.92000
O2298       O  0.95915057  0.37941547  0.52027215    -0.92400
O2299       O  0.96272557  0.41459410  0.48770826    -0.91200
C2300       C  0.85561114  0.27026814  0.49296714     1.17900
H2301       H  0.00076847  0.33161690  0.51762099     0.33800
H2302       H  0.96470102  0.38172979  0.45258558     0.44700
H2303       H  0.89588302  0.23633348  0.47054695     0.38200
H2304       H  0.53103547  0.30184076  0.44364047     0.34700
H2305       H  0.03347937  0.45285412  0.49537047     0.26500
H2306       H  0.05982305  0.39698822  0.40833007     0.32400
H2307       H  0.95285914  0.22548270  0.41053519     0.38300
H2308       H  0.97531404  0.40278816  0.52627188     0.32800
H2309       H  0.91694290  0.27358754  0.54080857     0.31700
H2310       H  0.89756706  0.19747940  0.50213547     0.33400
H2311       H  0.90910499  0.18330560  0.46416266     0.32300
H2312       H  0.93736638  0.39766239  0.48497135     0.36300
H2313       H  0.88619900  0.35162293  0.46465583     0.29100
H2314       H  0.60198375  0.32311620  0.48888714     0.33300
H2315       H  0.98241763  0.20388680  0.43577635     0.36100
H2316       H  0.95448204  0.27706708  0.54275843     0.28700
H2317       H  0.89940084  0.36035700  0.44313376     0.41600
H2318       H  0.55270178  0.43011019  0.44670705     0.31700
H2319       H  0.55614780  0.44139145  0.48487285     0.39300
H2320       H  0.94345322  0.19629186  0.47674874     0.31100
H2321       H  0.53744704  0.35633821  0.40029829     0.31200
H2322       H  0.57904460  0.29323357  0.47349685     0.31500
Zr2323     Zr  0.68443558  0.47306986  0.36936035     2.17500
O2324       O  0.70885337  0.43323178  0.36679579    -0.50900
O2325       O  0.63885475  0.44072848  0.34457880    -0.74100
O2326       O  0.65894998  0.42214906  0.39147987    -0.80900
O2327       O  0.76217054  0.02934450  0.34236076    -0.82600
O2328       O  0.65035304  0.44386103  0.41971046    -0.78200
O2329       O  0.71651916  0.47457266  0.34101136    -0.89900
O2330       O  0.61465109  0.47500585  0.33679456    -0.75800
O2331       O  0.63549132  0.97645419  0.38261706    -0.85300
O2332       O  0.68008755  0.01517547  0.34906174    -0.85000
O2333       O  0.70411518  0.99512003  0.40173571    -0.71800
O2334       O  0.74034057  0.02716024  0.37114560    -0.83900
Zr2335     Zr  0.70275783  0.09446985  0.39730660     2.26400
Zr2336     Zr  0.65522099  0.99993620  0.41474232     2.06300
Zr2337     Zr  0.73570200  0.06919043  0.35066810     2.10000
Zr2338     Zr  0.63152971  0.01921097  0.36245511     1.78800
O2339       O  0.79553302  0.10863536  0.33872708    -0.92700
O2340       O  0.56925460  0.97702478  0.36942339    -0.40500
O2341       O  0.68702887  0.07393135  0.36426916    -0.77200
O2342       O  0.64647962  0.04070156  0.39550153    -0.95800
O2343       O  0.71047559  0.05402313  0.41683231    -0.89200
O2344       O  0.75149768  0.09123446  0.38295240    -0.92000
C2345       C  0.62026727  0.44916086  0.33356100     1.01800
C2346       C  0.74952079  0.49590237  0.33930421     1.14700
C2347       C  0.65149650  0.41978489  0.40966673     1.05500
O2348       O  0.59166652  0.97878411  0.41465385    -0.94100
O2349       O  0.66513548  0.03799360  0.44266881    -0.89900
O2350       O  0.68889931  0.09485947  0.43200515    -0.83000
C2351       C  0.67659110  0.07108748  0.44549097     1.12100
O2352       O  0.78604896  0.01397121  0.40745821    -0.96100
Zr2353     Zr  0.75858676  0.05065730  0.40304566     1.88900
O2354       O  0.75762249  0.13750684  0.41213356    -0.72800
O2355       O  0.63619177  0.97446594  0.44728726    -0.52000
O2356       O  0.76246530  0.04012737  0.43757582    -0.96700
O2357       O  0.81804179  0.07630447  0.38912162    -0.53900
O2358       O  0.79002850  0.10998061  0.41667688    -0.73300
C2359       C  0.78529380  0.13676462  0.41769742     0.99100
O2360       O  0.66880859  0.12507646  0.40056406    -0.62100
O2361       O  0.71958928  0.06628039  0.31643725    -0.56900
O2362       O  0.72484268  0.14611450  0.37695587    -0.93600
O2363       O  0.74471881  0.13221300  0.34935012    -0.92000
O2364       O  0.62905126  0.04968488  0.33322898    -0.92400
O2365       O  0.59598680  0.04801517  0.36615659    -0.91200
C2366       C  0.73878392  0.15382213  0.35999895     1.17900
H2367       H  0.67713216  0.00846729  0.33550967     0.33800
H2368       H  0.62814677  0.04438826  0.40108957     0.44700
H2369       H  0.77290734  0.11406908  0.38198465     0.38200
H2370       H  0.70928552  0.47986592  0.40910384     0.34700
H2371       H  0.55641074  0.97614151  0.35732416     0.26500
H2372       H  0.61598759  0.95003128  0.44557190     0.32400
H2373       H  0.78614346  0.05947995  0.44170162     0.38300
H2374       H  0.60673375  0.03239375  0.32663741     0.32800
H2375       H  0.72836395  0.09131586  0.31268567     0.31700
H2376       H  0.80925466  0.12125155  0.35048529     0.33400
H2377       H  0.82553446  0.10154072  0.38664754     0.32300
H2378       H  0.61353680  0.07373695  0.36673715     0.36300
H2379       H  0.65853024  0.12362556  0.38749247     0.29100
H2380       H  0.68858729  0.40904534  0.36442238     0.33300
H2381       H  0.80637734  0.02751062  0.41637582     0.36100
H2382       H  0.73554837  0.05972836  0.30956853     0.28700
H2383       H  0.64808928  0.10928028  0.40874869     0.41600
H2384       H  0.58056066  0.45621848  0.40841006     0.31700
H2385       H  0.56945740  0.45376286  0.37027311     0.39300
H2386       H  0.81432084  0.06562463  0.37597610     0.31100
H2387       H  0.65573506  0.97146898  0.45262643     0.31200
H2388       H  0.71811193  0.43244365  0.37986221     0.31500
Zr2389     Zr  0.70577439  0.01799041  0.65100093     2.17500
O2390       O  0.77001349  0.05785609  0.65370644    -0.50900
O2391       O  0.69186657  0.04968935  0.67599154    -0.74100
O2392       O  0.73132810  0.06919837  0.62892804    -0.80900
O2393       O  0.72784534  0.46053169  0.67688132    -0.82600
O2394       O  0.70135651  0.04758983  0.60056532    -0.78200
O2395       O  0.73531329  0.01529799  0.67956927    -0.89900
O2396       O  0.63335609  0.01521481  0.68359153    -0.75800
O2397       O  0.65243815  0.51376533  0.63790469    -0.85300
O2398       O  0.65938375  0.47485655  0.67122937    -0.85000
O2399       O  0.70223109  0.49558272  0.61816985    -0.71800
O2400       O  0.70693257  0.46334512  0.64846139    -0.83900
Zr2401     Zr  0.60227749  0.39576328  0.62276950     2.26400
Zr2402     Zr  0.64793234  0.49039168  0.60571561     2.06300
Zr2403     Zr  0.66121423  0.42090174  0.66911037     2.10000
Zr2404     Zr  0.60640825  0.47059704  0.65817323     1.78800
O2405       O  0.68204204  0.38101955  0.67982975    -0.92700
O2406       O  0.58752396  0.51378527  0.65136507    -0.40500
O2407       O  0.60750924  0.41604691  0.65590677    -0.77200
O2408       O  0.59912165  0.44908124  0.62510064    -0.95800
O2409       O  0.64979771  0.43669248  0.60316689    -0.89200
O2410       O  0.65457363  0.39916034  0.63674399    -0.92000
C2411       C  0.66471847  0.04108651  0.68695300     1.01800
C2412       C  0.74856515  0.49466758  0.67996199     1.14700
C2413       C  0.72642911  0.07162750  0.61068922     1.05500
O2414       O  0.60443351  0.50999831  0.60805753    -0.94100
O2415       O  0.62051912  0.45245592  0.57765172    -0.89900
O2416       O  0.58782505  0.39545096  0.58813365    -0.83000
C2417       C  0.59911106  0.41935116  0.57473269     1.12100
O2418       O  0.76584364  0.47708005  0.61261591    -0.96100
Zr2419     Zr  0.70164837  0.44026084  0.61652004     1.88900
O2420       O  0.61485119  0.35301405  0.60810998    -0.72800
O2421       O  0.64946182  0.51636786  0.57389221    -0.52000
O2422       O  0.71462229  0.45149675  0.58188625    -0.96700
O2423       O  0.73585965  0.41473905  0.63009805    -0.53900
O2424       O  0.67456616  0.38111218  0.60278108    -0.73300
C2425       C  0.64321680  0.35403758  0.60218055     0.99100
O2426       O  0.53784284  0.36419846  0.61877716    -0.62100
O2427       O  0.64891998  0.42269390  0.70358994    -0.56900
O2428       O  0.57195916  0.34491852  0.64342073    -0.93600
O2429       O  0.60667548  0.35830678  0.67062580    -0.92000
O2430       O  0.57337034  0.44017316  0.68736168    -0.92400
O2431       O  0.54214839  0.44293871  0.65484138    -0.91200
C2432       C  0.57860189  0.33708826  0.66022369     1.17900
H2433       H  0.66343613  0.48158390  0.68477665     0.33800
H2434       H  0.57684398  0.44505221  0.61974524     0.44700
H2435       H  0.65343315  0.37644273  0.63764940     0.38200
H2436       H  0.72319532  0.51136195  0.61082563     0.34700
H2437       H  0.57589334  0.51499295  0.66352198     0.26500
H2438       H  0.65439885  0.54086068  0.57639600     0.32400
H2439       H  0.72058053  0.43333808  0.57757692     0.38300
H2440       H  0.56695811  0.45687900  0.69345980     0.32800
H2441       H  0.62458715  0.41921976  0.70389003     0.31700
H2442       H  0.68354563  0.36935632  0.66775942     0.33400
H2443       H  0.71841066  0.38928066  0.63215824     0.32300
H2444       H  0.53385104  0.41747069  0.65254983     0.36300
H2445       H  0.52846480  0.36641338  0.63152683     0.29100
H2446       H  0.77388153  0.08201446  0.65614083     0.33300
H2447       H  0.77260153  0.46447296  0.60301536     0.36100
H2448       H  0.64622705  0.40031850  0.70895110     0.28700
H2449       H  0.53286146  0.37917092  0.60992716     0.41600
H2450       H  0.61878324  0.53595221  0.61011338     0.31700
H2451       H  0.60972129  0.53706490  0.65069093     0.39300
H2452       H  0.74223886  0.42471791  0.64341895     0.31100
H2453       H  0.67105497  0.51932136  0.56728514     0.31200
H2454       H  0.78014376  0.05878785  0.64064712     0.31500
Zr2455     Zr  0.70727691  0.16594384  0.53608854     2.17500
O2456       O  0.77150298  0.19055811  0.53313725    -0.50900
O2457       O  0.69411313  0.12002360  0.51151876    -0.74100
O2458       O  0.73322577  0.14085786  0.55826828    -0.80900
O2459       O  0.72887767  0.24493452  0.50896314    -0.82600
O2460       O  0.70104645  0.12984224  0.58598776    -0.78200
O2461       O  0.73687137  0.19771245  0.50736485    -0.89900
O2462       O  0.63588508  0.09646179  0.50334616    -0.75800
O2463       O  0.65450522  0.11735234  0.54897692    -0.85300
O2464       O  0.66105160  0.16248701  0.51553339    -0.85000
O2465       O  0.70392313  0.18522550  0.56857354    -0.71800
O2466       O  0.70884103  0.22231311  0.53792016    -0.83900
Zr2467     Zr  0.60351534  0.18433152  0.56358000     2.26400
Zr2468     Zr  0.64988323  0.13632541  0.58115040     2.06300
Zr2469     Zr  0.66253077  0.21808967  0.51725301     2.10000
Zr2470     Zr  0.60824427  0.11375471  0.52855502     1.78800
O2471       O  0.68234291  0.27815628  0.50582578    -0.92700
O2472       O  0.59049337  0.05189904  0.53510019    -0.40500
O2473       O  0.60897091  0.16924295  0.53051668    -0.77200
O2474       O  0.60087549  0.12802164  0.56162262    -0.95800
O2475       O  0.65132133  0.19163988  0.58325200    -0.89200
O2476       O  0.65573303  0.23318538  0.54961020    -0.92000
C2477       C  0.66729113  0.10179464  0.50030740     1.01800
C2478       C  0.74888573  0.23078822  0.50565216     1.14700
C2479       C  0.72701826  0.13198507  0.57626235     1.05500
O2480       O  0.60668366  0.07299735  0.58130659    -0.94100
O2481       O  0.62096658  0.14556013  0.60891388    -0.89900
O2482       O  0.58914899  0.17076585  0.59826480    -0.83000
C2483       C  0.59983245  0.15763961  0.61171508     1.12100
O2484       O  0.76695121  0.26516706  0.57437279    -0.96100
Zr2485     Zr  0.70308030  0.23985725  0.56988823     1.88900
O2486       O  0.61544340  0.23918458  0.57847011    -0.72800
O2487       O  0.65659774  0.11987586  0.61429763    -0.52000
O2488       O  0.71760515  0.24499311  0.60444154    -0.96700
O2489       O  0.73599920  0.29952844  0.55619477    -0.53900
O2490       O  0.67517593  0.27106653  0.58376643    -0.73300
C2491       C  0.64370329  0.26650423  0.58448833     0.99100
O2492       O  0.53903094  0.15069365  0.56716936    -0.62100
O2493       O  0.64906078  0.20088632  0.48316763    -0.56900
O2494       O  0.57364134  0.20540162  0.54277719    -0.93600
O2495       O  0.60866624  0.22722459  0.51572375    -0.92000
O2496       O  0.57526634  0.11070900  0.49923231    -0.92400
O2497       O  0.54367612  0.07832544  0.53102010    -0.91200
C2498       C  0.58056871  0.22035422  0.52608837     1.17900
H2499       H  0.66513935  0.15960546  0.50202560     0.33800
H2500       H  0.57877538  0.10974844  0.56709955     0.44700
H2501       H  0.65433529  0.25462906  0.54873312     0.38200
H2502       H  0.72465693  0.19004932  0.57606581     0.34700
H2503       H  0.57842366  0.03904306  0.52302398     0.26500
H2504       H  0.66023420  0.09919147  0.61325457     0.32400
H2505       H  0.72493839  0.26987737  0.60785814     0.38300
H2506       H  0.57101053  0.08871463  0.49254381     0.32800
H2507       H  0.62324719  0.18354580  0.48302534     0.31700
H2508       H  0.68543293  0.29203088  0.51784242     0.33400
H2509       H  0.71778155  0.30615226  0.55313499     0.32300
H2510       H  0.53883940  0.06603008  0.54373705     0.36300
H2511       H  0.53013403  0.13881581  0.55442887     0.29100
H2512       H  0.77535730  0.17030517  0.53052311     0.33300
H2513       H  0.77521982  0.28821357  0.58103318     0.36100
H2514       H  0.65125429  0.22219838  0.47662861     0.28700
H2515       H  0.53423716  0.13102716  0.57619568     0.41600
H2516       H  0.61667433  0.06216736  0.57252565     0.31700
H2517       H  0.61291353  0.05116416  0.53534495     0.39300
H2518       H  0.74420727  0.29627420  0.54330640     0.31100
H2519       H  0.67952218  0.13956177  0.61913311     0.31200
H2520       H  0.78179485  0.19958163  0.54619104     0.31500
C2521       C  0.74865592  0.12198456  0.58708836    -0.12800
C2522       C  0.74845128  0.10329587  0.60002682    -0.14400
C2523       C  0.64035783  0.29537544  0.59123129    -0.12800
C2524       C  0.64017728  0.32179461  0.59571888    -0.14400
C2525       C  0.67576341  0.08176501  0.46530757    -0.12800
C2526       C  0.67317211  0.08948901  0.48193658    -0.14400
C2527       C  0.57780927  0.40142902  0.53822180    -0.12800
C2528       C  0.58778767  0.40883906  0.55490593    -0.14400
C2529       C  0.62259352  0.36902752  0.43286824    -0.12800
C2530       C  0.64163002  0.38801650  0.42023141    -0.14400
C2531       C  0.81436113  0.16903365  0.42423290    -0.12800
C2532       C  0.84100526  0.19548060  0.42862164    -0.14400
C2533       C  0.53171018  0.23923209  0.51697407    -0.12800
C2534       C  0.55414067  0.23010076  0.51947618    -0.14400
C2535       C  0.78757873  0.25122878  0.50188357    -0.12800
C2536       C  0.81917895  0.26024729  0.49942012    -0.14400
C2537       C  0.57737900  0.15368473  0.64804902    -0.12800
C2538       C  0.58794580  0.15650127  0.63146606    -0.14400
C2539       C  0.52935788  0.26963722  0.66939493    -0.12800
C2540       C  0.55186995  0.30113971  0.66690371    -0.14400
C2541       C  0.78611544  0.01231321  0.68404926    -0.12800
C2542       C  0.81765424  0.03497436  0.68631319    -0.14400
C2543       C  0.67273358  0.06971395  0.72193251    -0.12800
C2544       C  0.67013479  0.05915441  0.70534968    -0.14400
C2545       C  0.62000193  0.22961831  0.75401871    -0.12800
C2546       C  0.63859851  0.22983878  0.76700706    -0.14400
C2547       C  0.81203788  0.12193294  0.76172157    -0.12800
C2548       C  0.83869196  0.12214977  0.75723313    -0.14400
C2549       C  0.77770520  0.38841623  0.09988834    -0.12800
C2550       C  0.77784210  0.36932617  0.08731574    -0.14400
C2551       C  0.88548676  0.19570413  0.09055152    -0.12800
C2552       C  0.88611531  0.16965580  0.09520526    -0.14400
C2553       C  0.93924588  0.33612908  0.13183903    -0.12800
C2554       C  0.94939023  0.33858825  0.14849074    -0.14400
C2555       C  0.99555544  0.22289597  0.16948292    -0.12800
C2556       C  0.97284099  0.19136450  0.16715635    -0.14400
C2557       C  0.70800449  0.45603376  0.18709630    -0.12800
C2558       C  0.73948778  0.47873935  0.18479418    -0.14400
C2559       C  0.60784141  0.43102336  0.31519765    -0.12800
C2560       C  0.59999435  0.42050135  0.29861824    -0.14400
C2561       C  0.92009074  0.33728946  0.37128256    -0.12800
C2562       C  0.92800077  0.33497120  0.38791888    -0.14400
C2563       C  0.85434599  0.43169372  0.20492013    -0.12800
C2564       C  0.85185060  0.42102585  0.22146464    -0.14400
C2565       C  0.88646908  0.25998805  0.26628495    -0.12800
C2566       C  0.90549284  0.26021350  0.25356825    -0.14400
C2567       C  0.71363535  0.36850377  0.26165583    -0.12800
C2568       C  0.68715273  0.36861090  0.25727939    -0.14400
C2569       C  0.75693979  0.22141679  0.35066451    -0.12800
C2570       C  0.74819647  0.18994897  0.35332085    -0.14400
C2571       C  0.77018311  0.47798544  0.33554598    -0.12800
C2572       C  0.77902014  0.45534228  0.33302042    -0.14400
C2573       C  0.91834071  0.05965706  0.81466600    -0.12800
C2574       C  0.92593889  0.06969778  0.79802388    -0.14400
C2575       C  0.75613921  0.01315053  0.83624506    -0.12800
C2576       C  0.74727522  0.03581612  0.83385822    -0.14400
C2577       C  0.76997050  0.27004427  0.85092057    -0.12800
C2578       C  0.77915696  0.30164389  0.85352405    -0.14400
C2579       C  0.85616085  0.40430631  0.98223755    -0.12800
C2580       C  0.85346224  0.41179633  0.96557171    -0.14400
C2581       C  0.93764920  0.08385680  0.05518085    -0.12800
C2582       C  0.94813562  0.09150573  0.03860267    -0.14400
C2583       C  0.60733398  0.15427671  0.87221626    -0.12800
C2584       C  0.59995808  0.15729705  0.88883172    -0.14400
C2585       C  0.90532888  0.12301352  0.93349423    -0.12800
C2586       C  0.88664580  0.10443317  0.92055145    -0.14400
C2587       C  0.68764687  0.29659457  0.92917648    -0.12800
C2588       C  0.71422566  0.32319397  0.92487569    -0.14400
C2589       C  0.99678055  0.25469915  0.01721034    -0.12800
C2590       C  0.97406093  0.26351779  0.01963736    -0.14400
C2591       C  0.73954825  0.24050441  0.00295523    -0.12800
C2592       C  0.70796066  0.23148288  0.00071498    -0.14400
Zr2593     Zr  0.49113572  0.66829203  0.98425934     2.17500
O2594       O  0.95254965  0.69394682  0.98666276    -0.50900
O2595       O  0.95861805  0.62249460  0.00910645    -0.74100
O2596       O  0.93963186  0.64204060  0.96240121    -0.80900
O2597       O  0.54926556  0.74844404  0.01043336    -0.82600
O2598       O  0.96108114  0.63204924  0.93446552    -0.78200
O2599       O  0.99341409  0.69998463  0.01293365    -0.89900
O2600       O  0.49336698  0.59906780  0.01733187    -0.75800
O2601       O  0.49503779  0.61938554  0.97160877    -0.85300
O2602       O  0.53409512  0.66516930  0.00485939    -0.85000
O2603       O  0.51328994  0.68684662  0.95172205    -0.71800
O2604       O  0.54595842  0.72439014  0.98196526    -0.83900
Zr2605     Zr  0.61278352  0.68590027  0.95640482     2.26400
Zr2606     Zr  0.51820247  0.63759194  0.93932960     2.06300
Zr2607     Zr  0.58821588  0.72069832  0.00266435     2.10000
Zr2608     Zr  0.53794270  0.61612792  0.99195945     1.78800
O2609       O  0.62906244  0.78068156  0.01403479    -0.92700
O2610       O  0.49386400  0.55406613  0.98595587    -0.40500
O2611       O  0.59269586  0.67150002  0.98960543    -0.77200
O2612       O  0.55919742  0.62966789  0.95883633    -0.95800
O2613       O  0.57209064  0.69280272  0.93672631    -0.89200
O2614       O  0.60975619  0.73515734  0.97024379    -0.92000
C2615       C  0.96715265  0.60416563  0.02027849     1.01800
C2616       C  0.51518239  0.73494520  0.01370546     1.14700
C2617       C  0.93708711  0.63367226  0.94431224     1.05500
O2618       O  0.49974615  0.57460553  0.93959458    -0.94100
O2619       O  0.55561264  0.64886686  0.91098612    -0.89900
O2620       O  0.61229999  0.67124602  0.92168218    -0.83000
C2621       C  0.58853950  0.65950787  0.90815589     1.12100
O2622       O  0.53148290  0.76773514  0.94452446    -0.96100
Zr2623     Zr  0.56877757  0.74126993  0.94991374     1.88900
O2624       O  0.65561893  0.74036968  0.94122362    -0.72800
O2625       O  0.49156935  0.61425022  0.90745558    -0.52000
O2626       O  0.55772695  0.74219264  0.91519647    -0.96700
O2627       O  0.59262011  0.80122178  0.96286793    -0.53900
O2628       O  0.62840796  0.77309826  0.93677318    -0.73300
C2629       C  0.65507773  0.76817651  0.93575782     0.99100
O2630       O  0.64406151  0.65260327  0.95297193    -0.62100
O2631       O  0.58511355  0.70555397  0.03703497    -0.56900
O2632       O  0.66407948  0.70773092  0.97698303    -0.93600
O2633       O  0.65102751  0.72943468  0.00416010    -0.92000
O2634       O  0.56988205  0.61398104  0.02061652    -0.92400
O2635       O  0.56408504  0.57819737  0.98827811    -0.91200
C2636       C  0.67217787  0.72257585  0.99370974     1.17900
H2637       H  0.52738964  0.66261511  0.01840165     0.33800
H2638       H  0.56302194  0.61122886  0.95354032     0.44700
H2639       H  0.63256323  0.75662577  0.97114358     0.38200
H2640       H  0.49738913  0.69185258  0.94434784     0.34700
H2641       H  0.49353586  0.54146921  0.99804315     0.26500
H2642       H  0.46741822  0.59405160  0.90992426     0.32400
H2643       H  0.57761034  0.76503058  0.91046546     0.38300
H2644       H  0.55310237  0.59144586  0.02718815     0.32800
H2645       H  0.61023264  0.71717603  0.04130588     0.31700
H2646       H  0.62898071  0.79629236  0.00355784     0.33400
H2647       H  0.61872035  0.81139886  0.96313912     0.32300
H2648       H  0.58889044  0.59448286  0.98417128     0.36300
H2649       H  0.64121729  0.64084394  0.96572379     0.29100
H2650       H  0.92826424  0.67413673  0.98935696     0.33300
H2651       H  0.54449419  0.78709380  0.93499277     0.36100
H2652       H  0.57549132  0.71940451  0.04343715     0.28700
H2653       H  0.62935960  0.63285270  0.94394182     0.41600
H2654       H  0.47895580  0.56349655  0.94837638     0.31700
H2655       H  0.47065561  0.55322468  0.98592024     0.39300
H2656       H  0.58557511  0.79776556  0.97675965     0.31100
H2657       H  0.48777508  0.63273991  0.90132830     0.31200
H2658       H  0.95153513  0.70257752  0.97345984     0.31500
Zr2659     Zr  0.84355703  0.51931391  0.86952383     2.17500
O2660       O  0.81912110  0.55913017  0.86692751    -0.50900
O2661       O  0.88802944  0.55090655  0.84414642    -0.74100
O2662       O  0.86960613  0.57063710  0.89154932    -0.80900
O2663       O  0.76327591  0.96127196  0.84308908    -0.82600
O2664       O  0.87877123  0.54896562  0.91961056    -0.78200
O2665       O  0.80933522  0.51708107  0.84194182    -0.89900
O2666       O  0.91175491  0.51632967  0.83606303    -0.75800
O2667       O  0.89228059  0.01494826  0.88183125    -0.85300
O2668       O  0.84591000  0.97575090  0.84891024    -0.85000
O2669       O  0.82479901  0.99714105  0.90202795    -0.71800
O2670       O  0.78700293  0.96438460  0.87189243    -0.83900
Zr2671     Zr  0.82516757  0.89732051  0.89731849     2.26400
Zr2672     Zr  0.87418566  0.99223511  0.91419958     2.06300
Zr2673     Zr  0.79029004  0.92185232  0.85118618     2.10000
Zr2674     Zr  0.89488514  0.97149877  0.86154484     1.78800
O2675       O  0.73005346  0.88233239  0.83970464    -0.92700
O2676       O  0.95743479  0.01470938  0.86701042    -0.40500
O2677       O  0.83934118  0.91702041  0.86409268    -0.77200
O2678       O  0.88153807  0.95080171  0.89475419    -0.95800
O2679       O  0.81888314  0.93843299  0.91698432    -0.89200
O2680       O  0.77599366  0.90067758  0.88368852    -0.92000
C2681       C  0.90622632  0.54225253  0.83295175     1.01800
C2682       C  0.77700197  0.99537383  0.83985123     1.14700
C2683       C  0.87738218  0.57302597  0.90971594     1.05500
O2684       O  0.93748432  0.01201816  0.91344698    -0.94100
O2685       O  0.86417659  0.95478077  0.94233755    -0.89900
O2686       O  0.84004637  0.89769967  0.93195853    -0.83000
C2687       C  0.85270912  0.92175353  0.94532044     1.12100
O2688       O  0.74470669  0.97993697  0.90961923    -0.96100
Zr2689     Zr  0.77031060  0.94188863  0.90405352     1.88900
O2690       O  0.77021655  0.85484635  0.91234926    -0.72800
O2691       O  0.89684063  0.01823527  0.94627597    -0.52000
O2692       O  0.76997608  0.95265422  0.93887057    -0.96700
O2693       O  0.71017483  0.91737299  0.89124737    -0.53900
O2694       O  0.73847024  0.88283056  0.91781054    -0.73300
C2695       C  0.74295663  0.85587191  0.91843806     0.99100
O2696       O  0.85869665  0.86634927  0.90090475    -0.62100
O2697       O  0.80720574  0.92474112  0.81710772    -0.56900
O2698       O  0.80357157  0.84605601  0.87664632    -0.93600
O2699       O  0.78046741  0.85861307  0.84990167    -0.92000
O2700       O  0.89605668  0.93983163  0.83248661    -0.92400
O2701       O  0.93126064  0.94351099  0.86476380    -0.91200
C2702       C  0.78783916  0.83762947  0.86015370     1.17900
H2703       H  0.84834828  0.98245220  0.83537254     0.33800
H2704       H  0.90001307  0.94702417  0.90003993     0.44700
H2705       H  0.75440180  0.87796113  0.88290624     0.38200
H2706       H  0.81967810  0.01294585  0.90941178     0.34700
H2707       H  0.96949379  0.01474295  0.85475865     0.26500
H2708       H  0.91621644  0.04290349  0.94404868     0.32400
H2709       H  0.74616804  0.93426765  0.94342425     0.38300
H2710       H  0.91585020  0.95792820  0.82453296     0.32800
H2711       H  0.81285431  0.90541726  0.81562435     0.31700
H2712       H  0.71602169  0.87210453  0.85172940     0.33400
H2713       H  0.70372289  0.89337579  0.88647339     0.32300
H2714       H  0.91419303  0.91840353  0.86796083     0.36300
H2715       H  0.86900884  0.86754530  0.88787667     0.29100
H2716       H  0.83937988  0.58331261  0.86456452     0.33300
H2717       H  0.72437654  0.96641415  0.91852200     0.36100
H2718       H  0.78479002  0.91640148  0.80977077     0.28700
H2719       H  0.87944175  0.88215954  0.90908632     0.41600
H2720       H  0.94856706  0.53289559  0.90557786     0.31700
H2721       H  0.95874306  0.03812943  0.86715919     0.39300
H2722       H  0.71293099  0.93118109  0.87925617     0.31100
H2723       H  0.87762501  0.02065841  0.95256694     0.31200
H2724       H  0.80990446  0.55993583  0.88000172     0.31500
Zr2725     Zr  0.84340225  0.80246678  0.31715245     2.17500
O2726       O  0.81887950  0.73831621  0.32022152    -0.50900
O2727       O  0.88904668  0.81609680  0.34199010    -0.74100
O2728       O  0.86859647  0.77662869  0.29501613    -0.80900
O2729       O  0.76390063  0.78037381  0.34365399    -0.82600
O2730       O  0.87812443  0.80760863  0.26695173    -0.78200
O2731       O  0.81083120  0.77185712  0.34542210    -0.89900
O2732       O  0.91271115  0.87442999  0.34992550    -0.75800
O2733       O  0.89181289  0.85510427  0.30416042    -0.85300
O2734       O  0.84650897  0.84863198  0.33758979    -0.85000
O2735       O  0.82395706  0.80540848  0.28466060    -0.71800
O2736       O  0.78709060  0.80075871  0.31516687    -0.83900
Zr2737     Zr  0.82454401  0.90565004  0.28936212     2.26400
Zr2738     Zr  0.87282117  0.85945686  0.27193121     2.06300
Zr2739     Zr  0.79074276  0.84684722  0.33571810     2.10000
Zr2740     Zr  0.89518048  0.90137510  0.32447156     1.78800
O2741       O  0.73058511  0.82562302  0.34749914    -0.92700
O2742       O  0.95721617  0.91920306  0.31837260    -0.40500
O2743       O  0.83959369  0.90048452  0.32246565    -0.77200
O2744       O  0.88096630  0.90853176  0.29136426    -0.95800
O2745       O  0.81739878  0.85780251  0.26978038    -0.89200
O2746       O  0.77562180  0.85347944  0.30335254    -0.92000
C2747       C  0.90733292  0.84305628  0.35310727     1.01800
C2748       C  0.77778066  0.76014215  0.34698491     1.14700
C2749       C  0.87652476  0.78207419  0.27688089     1.05500
O2750       O  0.93627314  0.90246163  0.27251294    -0.94100
O2751       O  0.86256634  0.88781371  0.24413079    -0.89900
O2752       O  0.83873158  0.92083793  0.25486326    -0.83000
C2753       C  0.85117457  0.90955126  0.24136298     1.12100
O2754       O  0.74178710  0.74191342  0.27900298    -0.96100
Zr2755     Zr  0.76925285  0.80605309  0.28326959     1.88900
O2756       O  0.76962413  0.89315735  0.27432394    -0.72800
O2757       O  0.89166075  0.85419342  0.23911296    -0.52000
O2758       O  0.76457646  0.79159001  0.24871389    -0.96700
O2759       O  0.71052908  0.77330596  0.29816020    -0.53900
O2760       O  0.73779874  0.83337840  0.26921912    -0.73300
C2761       C  0.74230230  0.86479068  0.26842159     0.99100
O2762       O  0.85770432  0.97022618  0.28620679    -0.62100
O2763       O  0.80703528  0.85996931  0.36992458    -0.56900
O2764       O  0.80281623  0.93529406  0.30976022    -0.93600
O2765       O  0.78094473  0.90037145  0.33683422    -0.92000
O2766       O  0.89672909  0.93392483  0.35368868    -0.92400
O2767       O  0.93184831  0.96555742  0.32085481    -0.91200
C2768       C  0.78767566  0.92833948  0.32638367     1.17900
H2769       H  0.84935108  0.84467792  0.35112338     0.33800
H2770       H  0.89926544  0.93067565  0.28592767     0.44700
H2771       H  0.75409776  0.85474347  0.30420444     0.38200
H2772       H  0.81884257  0.78447002  0.27728914     0.34700
H2773       H  0.97011263  0.93264184  0.33014900     0.26500
H2774       H  0.91163493  0.84954515  0.24060581     0.32400
H2775       H  0.73941376  0.78306109  0.24533783     0.38300
H2776       H  0.91893529  0.93899588  0.36043478     0.32800
H2777       H  0.81897787  0.88620211  0.37078429     0.31700
H2778       H  0.71692726  0.82465666  0.33573997     0.33400
H2779       H  0.70193234  0.79051421  0.29899687     0.32300
H2780       H  0.91496840  0.97358670  0.31714503     0.36300
H2781       H  0.86914045  0.97903778  0.29904883     0.29100
H2782       H  0.83917608  0.73446565  0.32268300     0.33300
H2783       H  0.71970884  0.73464460  0.27151183     0.36100
H2784       H  0.78416971  0.85148885  0.37681057     0.28700
H2785       H  0.87771161  0.97545976  0.27734233     0.41600
H2786       H  0.94669727  0.89262239  0.28167641     0.31700
H2787       H  0.95826951  0.89697346  0.31904870     0.39300
H2788       H  0.71508295  0.76963554  0.31185582     0.31100
H2789       H  0.87194383  0.83190915  0.23366269     0.31200
H2790       H  0.80958906  0.72796685  0.30721090     0.31500
Zr2791     Zr  0.49055304  0.80287954  0.20291254     2.17500
O2792       O  0.95100903  0.73824794  0.20013344    -0.50900
O2793       O  0.95857573  0.81594463  0.17752131    -0.74100
O2794       O  0.93905369  0.77748974  0.22446199    -0.80900
O2795       O  0.54735966  0.78096655  0.17606741    -0.82600
O2796       O  0.96092630  0.80698487  0.25294157    -0.78200
O2797       O  0.99349781  0.77301937  0.17401693    -0.89900
O2798       O  0.49234454  0.87525150  0.17079447    -0.75800
O2799       O  0.49482587  0.85544158  0.21608660    -0.85300
O2800       O  0.53340931  0.84919844  0.18246441    -0.85000
O2801       O  0.51326377  0.80536683  0.23522953    -0.71800
O2802       O  0.54524108  0.80105555  0.20455355    -0.83900
Zr2803     Zr  0.61259867  0.90547951  0.23060264     2.26400
Zr2804     Zr  0.51830829  0.85927252  0.24817473     2.06300
Zr2805     Zr  0.58736303  0.84731082  0.18394764     2.10000
Zr2806     Zr  0.53760734  0.90184542  0.19584716     1.78800
O2807       O  0.62676706  0.82699630  0.17161525    -0.92700
O2808       O  0.49455504  0.92051754  0.20357311    -0.40500
O2809       O  0.59210533  0.90061492  0.19758831    -0.77200
O2810       O  0.55914768  0.90842074  0.22886058    -0.95800
O2811       O  0.57220670  0.85762630  0.25024742    -0.89200
O2812       O  0.60945616  0.85353676  0.21622700    -0.92000
C2813       C  0.96665062  0.84335166  0.16691816     1.01800
C2814       C  0.51325120  0.76110501  0.17270862     1.14700
C2815       C  0.93673740  0.78213878  0.24274206     1.05500
O2816       O  0.49768559  0.90209518  0.24728523    -0.94100
O2817       O  0.55647610  0.88718508  0.27604687    -0.89900
O2818       O  0.61316316  0.92053783  0.26515919    -0.83000
C2819       C  0.58953089  0.90911366  0.27871619     1.12100
O2820       O  0.53279497  0.74194061  0.24090358    -0.96100
Zr2821     Zr  0.56869312  0.80607539  0.23639330     1.88900
O2822       O  0.65522448  0.89315833  0.24557745    -0.72800
O2823       O  0.49269439  0.85616962  0.28034330    -0.52000
O2824       O  0.55845334  0.79236167  0.27100189    -0.96700
O2825       O  0.59473270  0.77247448  0.22257529    -0.53900
O2826       O  0.62785693  0.83322346  0.24986026    -0.73300
C2827       C  0.65452469  0.86470327  0.25099215     0.99100
O2828       O  0.64256339  0.97003358  0.23330626    -0.62100
O2829       O  0.58434755  0.86006659  0.14965787    -0.56900
O2830       O  0.66375553  0.93561107  0.21009131    -0.93600
O2831       O  0.65015312  0.90158269  0.18258396    -0.92000
O2832       O  0.56649014  0.93366616  0.16609180    -0.92400
O2833       O  0.56769947  0.96645769  0.19825437    -0.91200
C2834       C  0.67151702  0.92931294  0.19317025     1.17900
H2835       H  0.52649509  0.84549841  0.16894144     0.33800
H2836       H  0.56309133  0.93048561  0.23447751     0.44700
H2837       H  0.63228819  0.85492354  0.21525006     0.38200
H2838       H  0.49748908  0.78423877  0.24245911     0.34700
H2839       H  0.49497313  0.93466169  0.19216354     0.26500
H2840       H  0.46823996  0.85158236  0.27811430     0.32400
H2841       H  0.57910802  0.79044484  0.27547524     0.38300
H2842       H  0.54921561  0.93925838  0.15996465     0.32800
H2843       H  0.60878898  0.86899935  0.14472556     0.31700
H2844       H  0.64451627  0.83278815  0.18208720     0.33400
H2845       H  0.61964749  0.79042439  0.21951400     0.32300
H2846       H  0.56064088  0.97156082  0.21103122     0.36300
H2847       H  0.63682861  0.97787106  0.22096174     0.29100
H2848       H  0.92693190  0.73428008  0.19729672     0.33300
H2849       H  0.54686479  0.73548064  0.24961666     0.36100
H2850       H  0.57018171  0.83639329  0.14352288     0.28700
H2851       H  0.62916560  0.97495516  0.24330862     0.41600
H2852       H  0.47371079  0.88903029  0.24142828     0.31700
H2853       H  0.47104173  0.89860102  0.20285873     0.39300
H2854       H  0.58323778  0.76440571  0.20968238     0.31100
H2855       H  0.48964636  0.83419403  0.28649803     0.31200
H2856       H  0.94959229  0.72847487  0.21334622     0.31500
Zr2857     Zr  0.82021293  0.97405452  0.15074922     2.17500
O2858       O  0.75607389  0.93354101  0.15310034    -0.50900
O2859       O  0.83354367  0.94232922  0.17587606    -0.74100
O2860       O  0.79552092  0.92288946  0.12868633    -0.80900
O2861       O  0.79827669  0.53080795  0.17805096    -0.82600
O2862       O  0.82475006  0.94513448  0.10025535    -0.78200
O2863       O  0.78936786  0.97549256  0.17900024    -0.89900
O2864       O  0.89221828  0.97611654  0.18331843    -0.75800
O2865       O  0.87172503  0.47767213  0.13724704    -0.85300
O2866       O  0.86584778  0.51630404  0.17121943    -0.85000
O2867       O  0.82210816  0.49676624  0.11834703    -0.71800
O2868       O  0.81805183  0.52865185  0.14905749    -0.83900
Zr2869     Zr  0.92267742  0.59564594  0.12307173     2.26400
Zr2870     Zr  0.87575035  0.50161396  0.10524270     2.06300
Zr2871     Zr  0.86450083  0.57056385  0.16966704     2.10000
Zr2872     Zr  0.91819124  0.51992454  0.15768518     1.78800
O2873       O  0.84308195  0.60942631  0.18134998    -0.92700
O2874       O  0.93483576  0.47512718  0.15045452    -0.40500
O2875       O  0.91748955  0.57469755  0.15595560    -0.77200
O2876       O  0.92507331  0.54185852  0.12470431    -0.95800
O2877       O  0.87459995  0.55570157  0.10339091    -0.89200
O2878       O  0.87091335  0.59288403  0.13742440    -0.92000
C2879       C  0.86071193  0.95051605  0.18672694     1.01800
C2880       C  0.77763209  0.99680032  0.18060928     1.14700
C2881       C  0.80007877  0.92076929  0.11038892     1.05500
O2882       O  0.91813256  0.48046175  0.10553404    -0.94100
O2883       O  0.90516123  0.53944408  0.07750977    -0.89900
O2884       O  0.93714606  0.59628747  0.08838904    -0.83000
C2885       C  0.92644576  0.57262387  0.07484804     1.12100
O2886       O  0.75915886  0.51586668  0.11258500    -0.96100
Zr2887     Zr  0.82320676  0.55236867  0.11726296     1.88900
O2888       O  0.91092998  0.63877747  0.10838423    -0.72800
O2889       O  0.86936373  0.47843516  0.07209472    -0.52000
O2890       O  0.80885950  0.54197469  0.08271413    -0.96700
O2891       O  0.78927646  0.57755473  0.13165821    -0.53900
O2892       O  0.85110653  0.61148314  0.10347595    -0.73300
C2893       C  0.88269871  0.63811741  0.10256061     0.99100
O2894       O  0.98713459  0.62574858  0.11977165    -0.62100
O2895       O  0.87946546  0.56891549  0.20371013    -0.56900
O2896       O  0.95295924  0.64648977  0.14390327    -0.93600
O2897       O  0.91858482  0.63338769  0.17121478    -0.92000
O2898       O  0.95294377  0.55184886  0.18614662    -0.92400
O2899       O  0.98263811  0.54746751  0.15553454    -0.91200
C2900       C  0.94652122  0.65450837  0.16072759     1.17900
H2901       H  0.86200386  0.50949831  0.18475238     0.33800
H2902       H  0.94704668  0.54558756  0.11907589     0.44700
H2903       H  0.87243911  0.61577684  0.13840386     0.38200
H2904       H  0.80174277  0.98088596  0.11112404     0.34700
H2905       H  0.94837150  0.47496788  0.16202894     0.26500
H2906       H  0.86513781  0.45390526  0.07317538     0.32400
H2907       H  0.80240336  0.56000802  0.07889664     0.38300
H2908       H  0.95335667  0.53342483  0.19444620     0.32800
H2909       H  0.89182307  0.59410599  0.20789601     0.31700
H2910       H  0.84605155  0.62499201  0.17013324     0.33400
H2911       H  0.80687435  0.60287146  0.13403322     0.32300
H2912       H  0.98750263  0.54240405  0.14218046     0.36300
H2913       H  0.99570063  0.62256448  0.13256965     0.29100
H2914       H  0.75253879  0.90955718  0.15570059     0.33300
H2915       H  0.75231091  0.53005219  0.10422618     0.36100
H2916       H  0.85636033  0.55800800  0.21059410     0.28700
H2917       H  0.99178927  0.61067409  0.11080816     0.41600
H2918       H  0.90866551  0.95952162  0.11351463     0.31700
H2919       H  0.91563068  0.95420023  0.15108549     0.39300
H2920       H  0.78281136  0.56696540  0.14483640     0.31100
H2921       H  0.84678170  0.47578185  0.06705228     0.31200
H2922       H  0.74610005  0.93226853  0.13995301     0.31500
Zr2923     Zr  0.82072350  0.82717548  0.03598963     2.17500
O2924       O  0.75689492  0.80414459  0.03229706    -0.50900
O2925       O  0.83465602  0.87296316  0.01119308    -0.74100
O2926       O  0.79491621  0.85251022  0.05814213    -0.80900
O2927       O  0.79860789  0.74740486  0.00958023    -0.82600
O2928       O  0.82506983  0.86113713  0.08644972    -0.78200
O2929       O  0.79033103  0.79442369  0.00769270    -0.89900
O2930       O  0.89320624  0.89722901  0.00363341    -0.75800
O2931       O  0.87325474  0.87562923  0.04908290    -0.85300
O2932       O  0.86709825  0.83056926  0.01562443    -0.85000
O2933       O  0.82332843  0.80757136  0.06848044    -0.71800
O2934       O  0.81887834  0.77066429  0.03807176    -0.83900
Zr2935     Zr  0.92357521  0.80817450  0.06405343     2.26400
Zr2936     Zr  0.87724318  0.85651987  0.08128537     2.06300
Zr2937     Zr  0.86514773  0.77469000  0.01748818     2.10000
Zr2938     Zr  0.91979510  0.87913957  0.02897835     1.78800
O2939       O  0.84549526  0.71482818  0.00567005    -0.92700
O2940       O  0.93719590  0.94068328  0.03626726    -0.40500
O2941       O  0.91860473  0.82341802  0.03098856    -0.77200
O2942       O  0.92650038  0.86457287  0.06205384    -0.95800
O2943       O  0.87578273  0.80115182  0.08365208    -0.89200
O2944       O  0.87145969  0.75935251  0.04985752    -0.92000
C2945       C  0.86181240  0.89166199  0.00029343     1.01800
C2946       C  0.77844568  0.76134616  0.00622561     1.14700
C2947       C  0.79993652  0.86005141  0.07634908     1.05500
O2948       O  0.91970944  0.91989629  0.07982289    -0.94100
O2949       O  0.90545070  0.84715663  0.10933589    -0.89900
O2950       O  0.93766902  0.82230712  0.09875646    -0.83000
C2951       C  0.92671177  0.83524285  0.11218884     1.12100
O2952       O  0.76062335  0.72847853  0.07552481    -0.96100
Zr2953     Zr  0.82416083  0.75299197  0.07011050     1.88900
O2954       O  0.91176389  0.75349540  0.07901134    -0.72800
O2955       O  0.87363600  0.87815389  0.11363587    -0.52000
O2956       O  0.81237270  0.75032522  0.10493576    -0.96700
O2957       O  0.78796179  0.69270501  0.05759222    -0.53900
O2958       O  0.85177914  0.72092583  0.08321146    -0.73300
C2959       C  0.88331790  0.72575777  0.08440062     0.99100
O2960       O  0.98804966  0.84190703  0.06752825    -0.62100
O2961       O  0.87845153  0.79176159  0.98338642    -0.56900
O2962       O  0.95330547  0.78658297  0.04346008    -0.93600
O2963       O  0.91909817  0.76566210  0.01604989    -0.92000
O2964       O  0.95378176  0.88194345  0.00011725    -0.92400
O2965       O  0.98400257  0.91644505  0.03231566    -0.91200
C2966       C  0.94686430  0.77212661  0.02662927     1.17900
H2967       H  0.86325882  0.83360104  0.00209972     0.33800
H2968       H  0.94860204  0.88285240  0.06757740     0.44700
H2969       H  0.87279834  0.73787967  0.04890461     0.38200
H2970       H  0.80227883  0.80238918  0.07574750     0.34700
H2971       H  0.94952464  0.95406979  0.02437688     0.26500
H2972       H  0.86928106  0.89820855  0.11158300     0.32400
H2973       H  0.80689966  0.72621972  0.10894861     0.38300
H2974       H  0.95582483  0.90221168  0.99247687     0.32800
H2975       H  0.90439801  0.80853882  0.98316845     0.31700
H2976       H  0.84248510  0.70077163  0.01759008     0.33400
H2977       H  0.80526513  0.68614515  0.05253286     0.32300
H2978       H  0.99236708  0.89989247  0.03616081     0.36300
H2979       H  0.99701514  0.85231334  0.05450328     0.29100
H2980       H  0.75384998  0.82486103  0.02958466     0.33300
H2981       H  0.75356613  0.70875123  0.08489718     0.36100
H2982       H  0.87551472  0.77019992  0.97676791     0.28700
H2983       H  0.99291939  0.86255790  0.07577922     0.41600
H2984       H  0.90510514  0.93089318  0.07679043     0.31700
H2985       H  0.91474728  0.94136659  0.03650097     0.39300
H2986       H  0.77635904  0.69530892  0.04578630     0.31100
H2987       H  0.85145144  0.85916121  0.11957607     0.31200
H2988       H  0.74598579  0.79515871  0.04522971     0.31500
Zr2989     Zr  0.68305966  0.68883367  0.81714067     2.17500
O2990       O  0.71053245  0.75359721  0.81760803    -0.50900
O2991       O  0.63874196  0.67641940  0.84262560    -0.74100
O2992       O  0.65552789  0.71311304  0.79569361    -0.80900
O2993       O  0.76206094  0.71101610  0.84384992    -0.82600
O2994       O  0.64727446  0.68274402  0.76749559    -0.78200
O2995       O  0.71508815  0.71954073  0.84549061    -0.89900
O2996       O  0.61331847  0.61772828  0.85020049    -0.75800
O2997       O  0.63410572  0.63597161  0.80459633    -0.85300
O2998       O  0.67996744  0.64301561  0.83780830    -0.85000
O2999       O  0.70173901  0.68494273  0.78464921    -0.71800
O3000       O  0.73931027  0.69032026  0.81500381    -0.83900
Zr3001     Zr  0.70104087  0.58470852  0.78986373     2.26400
Zr3002     Zr  0.65250668  0.63080322  0.77239333     2.06300
Zr3003     Zr  0.73555880  0.64457199  0.83584898     2.10000
Zr3004     Zr  0.63094474  0.59005004  0.82512283     1.78800
O3005       O  0.79641468  0.66476861  0.84599985    -0.92700
O3006       O  0.56870960  0.57045589  0.81827743    -0.40500
O3007       O  0.68644331  0.59089902  0.82287918    -0.77200
O3008       O  0.64482155  0.58226408  0.79206971    -0.95800
O3009       O  0.70778929  0.63210613  0.77001846    -0.89200
O3010       O  0.75020854  0.63725548  0.80347872    -0.92000
C3011       C  0.61954087  0.64938706  0.85351776     1.01800
C3012       C  0.74811705  0.73120952  0.84717641     1.14700
C3013       C  0.64812826  0.70788864  0.77749297     1.05500
O3014       O  0.58932638  0.58701400  0.77293104    -0.94100
O3015       O  0.66193552  0.60211339  0.74458997    -0.89900
O3016       O  0.68646243  0.56966985  0.75527226    -0.83000
C3017       C  0.67361158  0.58063885  0.74180539     1.12100
O3018       O  0.78259182  0.74808602  0.77830174    -0.96100
Zr3019     Zr  0.75634215  0.68413319  0.78297924     1.88900
O3020       O  0.75621530  0.59649464  0.77526089    -0.72800
O3021       O  0.63284747  0.63577205  0.73974648    -0.52000
O3022       O  0.75846839  0.69748551  0.74837675    -0.96700
O3023       O  0.81640964  0.71868140  0.79609875    -0.53900
O3024       O  0.78732979  0.65595560  0.76903013    -0.73300
C3025       C  0.78327477  0.62464466  0.76887362     0.99100
O3026       O  0.66658189  0.52018535  0.78652806    -0.62100
O3027       O  0.72061850  0.63290980  0.87023805    -0.56900
O3028       O  0.72152821  0.55484228  0.81118177    -0.93600
O3029       O  0.74333998  0.58997571  0.83822129    -0.92000
O3030       O  0.62945100  0.55908246  0.85496374    -0.92400
O3031       O  0.59638370  0.52539645  0.82299466    -0.91200
C3032       C  0.73624556  0.56168887  0.82796003     1.17900
H3033       H  0.67725042  0.64719499  0.85132516     0.33800
H3034       H  0.62646738  0.56007636  0.78670960     0.44700
H3035       H  0.77175584  0.63604012  0.80438364     0.38200
H3036       H  0.70659995  0.70571340  0.77719686     0.34700
H3037       H  0.55581001  0.55769854  0.83019448     0.26500
H3038       H  0.61332556  0.64107449  0.74136825     0.32400
H3039       H  0.78315310  0.70512188  0.74435806     0.38300
H3040       H  0.60595676  0.55183357  0.86081209     0.32800
H3041       H  0.70313898  0.60716106  0.87079898     0.31700
H3042       H  0.81125896  0.68190361  0.83581499     0.33400
H3043       H  0.82379084  0.70101486  0.79910914     0.32300
H3044       H  0.58437104  0.52006203  0.81016748     0.36300
H3045       H  0.65512957  0.51158295  0.79938483     0.29100
H3046       H  0.69150010  0.75897727  0.82086664     0.33300
H3047       H  0.80320557  0.75522724  0.76956156     0.36100
H3048       H  0.74229217  0.63519564  0.87637962     0.28700
H3049       H  0.64663241  0.51549002  0.77772895     0.41600
H3050       H  0.57835417  0.59780699  0.78099792     0.31700
H3051       H  0.56711519  0.59241060  0.81825578     0.39300
H3052       H  0.81333880  0.72698201  0.80900543     0.31100
H3053       H  0.65272762  0.65762880  0.73404468     0.31200
H3054       H  0.71746317  0.76170622  0.80400497     0.31500
Zr3055     Zr  0.53516001  0.68770094  0.70251065     2.17500
O3056       O  0.57551298  0.75180532  0.69975302    -0.50900
O3057       O  0.56707736  0.67425100  0.67751006    -0.74100
O3058       O  0.58601826  0.71291855  0.72476562    -0.80900
O3059       O  0.97805095  0.70986667  0.67568506    -0.82600
O3060       O  0.56398871  0.68240610  0.75289142    -0.78200
O3061       O  0.53352480  0.71915548  0.67456393    -0.89900
O3062       O  0.53261101  0.61591245  0.66954506    -0.75800
O3063       O  0.53090503  0.63490469  0.71534841    -0.85300
O3064       O  0.99261641  0.64185487  0.68186452    -0.85000
O3065       O  0.01281902  0.68495944  0.73480710    -0.71800
O3066       O  0.98068403  0.68966318  0.70430022    -0.83900
Zr3067     Zr  0.91357397  0.58498234  0.73017448     2.26400
Zr3068     Zr  0.00798289  0.63093417  0.74737874     2.06300
Zr3069     Zr  0.93853114  0.64345650  0.68373836     2.10000
Zr3070     Zr  0.98883142  0.58920303  0.69502341     1.78800
O3071       O  0.89904058  0.66383711  0.67171027    -0.92700
O3072       O  0.03322420  0.57187796  0.70193810    -0.40500
O3073       O  0.93409492  0.59009251  0.69712189    -0.77200
O3074       O  0.96699314  0.58194845  0.72802023    -0.95800
O3075       O  0.95430959  0.63283315  0.74969468    -0.89200
O3076       O  0.91650659  0.63693906  0.71607139    -0.92000
C3077       C  0.55854048  0.64732252  0.66638407     1.01800
C3078       C  0.51195603  0.73054590  0.67271160     1.14700
C3079       C  0.58816548  0.70767603  0.74296545     1.05500
O3080       O  0.02718848  0.58710050  0.74511137    -0.94100
O3081       O  0.97008774  0.60372315  0.77543108    -0.89900
O3082       O  0.91316048  0.57079070  0.76480643    -0.83000
C3083       C  0.93697698  0.58222779  0.77826384     1.12100
O3084       O  0.99462457  0.74856069  0.74034430    -0.96100
Zr3085     Zr  0.95745508  0.68442074  0.73619465     1.88900
O3086       O  0.87109998  0.59721847  0.74558376    -0.72800
O3087       O  0.03443509  0.63293289  0.77913321    -0.52000
O3088       O  0.96769881  0.69906359  0.77071330    -0.96700
O3089       O  0.93180184  0.71800163  0.72192403    -0.53900
O3090       O  0.89836756  0.65713310  0.75005048    -0.73300
C3091       C  0.87173150  0.62556785  0.75121859     0.99100
O3092       O  0.88337429  0.52050195  0.73363121    -0.62100
O3093       O  0.94152339  0.63029596  0.64954372    -0.56900
O3094       O  0.86255570  0.55498294  0.70951750    -0.93600
O3095       O  0.87566864  0.58951997  0.68227767    -0.92000
O3096       O  0.95757500  0.55483875  0.66629199    -0.92400
O3097       O  0.96247288  0.52510880  0.69842940    -0.91200
C3098       C  0.85454989  0.56155310  0.69273420     1.17900
H3099       H  0.99942478  0.64584178  0.66833472     0.30200
H3100       H  0.96299270  0.55972289  0.73342694     0.44700
H3101       H  0.89363190  0.63549235  0.71522555     0.38200
H3102       H  0.52831448  0.70559099  0.74232326     0.34700
H3103       H  0.03502699  0.56065443  0.68975556     0.26500
H3104       H  0.05898273  0.63803314  0.77661223     0.32400
H3105       H  0.95087562  0.70730811  0.77419888     0.38300
H3106       H  0.97616712  0.55435291  0.65816943     0.32800
H3107       H  0.91642546  0.61735913  0.64520403     0.31700
H3108       H  0.88861603  0.66784766  0.68359906     0.33400
H3109       H  0.90663501  0.70019753  0.71931452     0.32300
H3110       H  0.93713133  0.51641014  0.70137620     0.36300
H3111       H  0.88661106  0.51176322  0.72090398     0.29100
H3112       H  0.59963399  0.75543569  0.69750872     0.33300
H3113       H  0.98071472  0.75588432  0.74862107     0.36100
H3114       H  0.95183555  0.65366784  0.64298265     0.28700
H3115       H  0.89827150  0.51582956  0.74271944     0.41600
H3116       H  0.55192239  0.60058404  0.74104786     0.31700
H3117       H  0.55565411  0.59331631  0.70047307     0.39300
H3118       H  0.94271005  0.72500912  0.70883988     0.31100
H3119       H  0.53598736  0.65459520  0.78586028     0.31200
H3120       H  0.57631334  0.76207976  0.71275556     0.31500
Zr3121     Zr  0.53777914  0.82602680  0.48382275     2.17500
O3122       O  0.57925563  0.80370012  0.48745156    -0.50900
O3123       O  0.56953367  0.87186249  0.50860149    -0.74100
O3124       O  0.58859910  0.85073184  0.46162272    -0.80900
O3125       O  0.97961491  0.74574238  0.50988001    -0.82600
O3126       O  0.56746509  0.86062420  0.43357133    -0.78200
O3127       O  0.53547522  0.79282132  0.51190298    -0.89900
O3128       O  0.53547471  0.89644177  0.51612920    -0.75800
O3129       O  0.53357880  0.87444865  0.47073439    -0.85300
O3130       O  0.99396385  0.82888533  0.50436686    -0.85000
O3131       O  0.01455179  0.80616979  0.45139893    -0.71800
O3132       O  0.98234809  0.76906395  0.48170612    -0.83900
Zr3133     Zr  0.91498480  0.80698108  0.45597236     2.26400
Zr3134     Zr  0.00946693  0.85509232  0.43866444     2.06300
Zr3135     Zr  0.94013921  0.77307653  0.50233699     2.10000
Zr3136     Zr  0.98967421  0.87746437  0.49118781     1.78800
O3137       O  0.90043437  0.71374132  0.51488946    -0.92700
O3138       O  0.03328315  0.93942715  0.48461540    -0.40500
O3139       O  0.93511664  0.82186128  0.48912085    -0.77200
O3140       O  0.96854722  0.86326728  0.45807611    -0.95800
O3141       O  0.95561356  0.79983631  0.43632954    -0.89200
O3142       O  0.91831658  0.75803683  0.46995417    -0.92000
C3143       C  0.56123983  0.89076201  0.51945786     1.01800
C3144       C  0.51396728  0.75983402  0.51351219     1.14700
C3145       C  0.59124357  0.85881721  0.44352613     1.05500
O3146       O  0.03014882  0.91856536  0.43893739    -0.94100
O3147       O  0.97119145  0.84547249  0.41080988    -0.89900
O3148       O  0.91408532  0.82030352  0.42127771    -0.83000
C3149       C  0.93799716  0.83340655  0.40789272     1.12100
O3150       O  0.99616796  0.72466973  0.44474330    -0.96100
Zr3151     Zr  0.95917447  0.75162169  0.44969835     1.88900
O3152       O  0.87209697  0.75202650  0.44122452    -0.72800
O3153       O  0.03324356  0.87346905  0.40577482    -0.52000
O3154       O  0.97005596  0.74794685  0.41517267    -0.96700
O3155       O  0.93263096  0.69199269  0.46341127    -0.53900
O3156       O  0.90024643  0.72047042  0.43570740    -0.73300
C3157       C  0.87322605  0.72484882  0.43511678     0.99100
O3158       O  0.88537413  0.84177084  0.45203787    -0.62100
O3159       O  0.94435577  0.78973396  0.53653475    -0.56900
O3160       O  0.86376767  0.78571480  0.47650051    -0.93600
O3161       O  0.87710470  0.76406997  0.50359855    -0.92000
O3162       O  0.95848941  0.87957648  0.52021414    -0.92400
O3163       O  0.96264115  0.91461087  0.48763884    -0.91200
C3164       C  0.85579801  0.77083415  0.49320678     1.17900
H3165       H  0.00081843  0.83181781  0.51789423     0.33800
H3166       H  0.96484039  0.88167611  0.45263822     0.44700
H3167       H  0.89552439  0.73655025  0.47083275     0.38200
H3168       H  0.53131579  0.80127167  0.44400008     0.34700
H3169       H  0.03455262  0.95218076  0.49682016     0.26500
H3170       H  0.05765303  0.89382210  0.40721740     0.32400
H3171       H  0.95025598  0.72468372  0.41084076     0.38300
H3172       H  0.97546090  0.90203323  0.52680810     0.32800
H3173       H  0.91937356  0.77900802  0.54092180     0.31700
H3174       H  0.89233873  0.69839856  0.50317205     0.33400
H3175       H  0.90866881  0.68639272  0.46779934     0.32300
H3176       H  0.93756926  0.89785843  0.48419130     0.36300
H3177       H  0.88661653  0.85219678  0.46504041     0.29100
H3178       H  0.60323068  0.82455843  0.48945236     0.33300
H3179       H  0.98184550  0.70342735  0.43654677     0.36100
H3180       H  0.95344748  0.77557768  0.54311117     0.28700
H3181       H  0.90160675  0.86234509  0.44388332     0.41600
H3182       H  0.55451171  0.92955226  0.44566326     0.31700
H3183       H  0.55677705  0.94140514  0.48375777     0.39300
H3184       H  0.94594953  0.69489779  0.47562401     0.31100
H3185       H  0.53856943  0.85421269  0.40059608     0.31200
H3186       H  0.58014160  0.79343028  0.47471748     0.31500
Zr3187     Zr  0.68395758  0.97240326  0.36939886     2.17500
O3188       O  0.70885112  0.93287167  0.36716184    -0.50900
O3189       O  0.63872919  0.94034286  0.34446290    -0.74100
O3190       O  0.65795436  0.92102973  0.39119284    -0.80900
O3191       O  0.76343367  0.53001207  0.34262064    -0.82600
O3192       O  0.65090218  0.94322994  0.41963716    -0.78200
O3193       O  0.71501565  0.97417664  0.34054532    -0.89900
O3194       O  0.61387308  0.97425243  0.33714156    -0.75800
O3195       O  0.63579778  0.47708329  0.38228645    -0.85300
O3196       O  0.68097221  0.51581353  0.34884137    -0.85000
O3197       O  0.70408191  0.49563956  0.40175290    -0.71800
O3198       O  0.74087131  0.52771826  0.37124487    -0.83900
Zr3199     Zr  0.70331122  0.59511183  0.39705700     2.26400
Zr3200     Zr  0.65505915  0.50065600  0.41442942     2.06300
Zr3201     Zr  0.73668757  0.56976018  0.35059677     2.10000
Zr3202     Zr  0.63231270  0.51995693  0.36202247     1.78800
O3203       O  0.79651277  0.60966127  0.33871684    -0.92700
O3204       O  0.57058838  0.47708222  0.36971075    -0.40500
O3205       O  0.68792301  0.57454894  0.36401327    -0.77200
O3206       O  0.64688647  0.54165326  0.39505510    -0.95800
O3207       O  0.71044630  0.55451907  0.41665860    -0.89200
O3208       O  0.75218129  0.59182060  0.38291220    -0.92000
C3209       C  0.61992611  0.94875516  0.33361906     1.01800
C3210       C  0.74806421  0.99527081  0.33889437     1.14700
C3211       C  0.65137735  0.91892992  0.40948628     1.05500
O3212       O  0.59175531  0.48061793  0.41370421    -0.94100
O3213       O  0.66577602  0.53866559  0.44245464    -0.89900
O3214       O  0.68991904  0.59558920  0.43185908    -0.83000
C3215       C  0.67751117  0.57178601  0.44533439     1.12100
O3216       O  0.78635670  0.51458635  0.40734817    -0.96100
Zr3217     Zr  0.75865930  0.55107458  0.40319037     1.88900
O3218       O  0.75838396  0.63802237  0.41165250    -0.72800
O3219       O  0.63364649  0.47530738  0.44675549    -0.52000
O3220       O  0.76035571  0.53976233  0.43780108    -0.96700
O3221       O  0.81894641  0.57817044  0.39025358    -0.53900
O3222       O  0.78996891  0.60995499  0.41723620    -0.73300
C3223       C  0.78562615  0.63699608  0.41771628     0.99100
O3224       O  0.67028712  0.62654295  0.40085845    -0.62100
O3225       O  0.72046407  0.56647670  0.31636571    -0.56900
O3226       O  0.72428657  0.64599230  0.37629644    -0.93600
O3227       O  0.74555454  0.63264099  0.34905450    -0.92000
O3228       O  0.62878127  0.54923870  0.33254888    -0.92400
O3229       O  0.59618213  0.54829070  0.36469565    -0.91200
C3230       C  0.73883882  0.65390254  0.35950905     1.17900
H3231       H  0.67804993  0.50885589  0.33532944     0.33800
H3232       H  0.62860046  0.54555196  0.40051205     0.44700
H3233       H  0.77370421  0.61457675  0.38198222     0.38200
H3234       H  0.70948435  0.97935839  0.40898319     0.34700
H3235       H  0.55718190  0.47578518  0.35777369     0.26500
H3236       H  0.61364724  0.45086972  0.44473358     0.32400
H3237       H  0.78493575  0.55691236  0.44193383     0.38300
H3238       H  0.60513849  0.53270864  0.32694336     0.32800
H3239       H  0.69835724  0.56780742  0.31644989     0.31700
H3240       H  0.81203934  0.61345166  0.35008954     0.33400
H3241       H  0.82630940  0.60346260  0.38809496     0.32300
H3242       H  0.61279299  0.57263778  0.36937467     0.36300
H3243       H  0.65917809  0.62470125  0.38799629     0.29100
H3244       H  0.68882348  0.90874359  0.36435021     0.33300
H3245       H  0.80630685  0.52787089  0.41652699     0.36100
H3246       H  0.73860985  0.58952577  0.31082842     0.28700
H3247       H  0.65005742  0.61126478  0.40946961     0.41600
H3248       H  0.58091481  0.95577635  0.40770819     0.31700
H3249       H  0.56770112  0.95351605  0.37002258     0.39300
H3250       H  0.81606779  0.56819021  0.37697299     0.31100
H3251       H  0.65276212  0.47225909  0.45267815     0.31200
H3252       H  0.71733188  0.93156363  0.38036506     0.31500
Zr3253     Zr  0.70523241  0.51795080  0.65064892     2.17500
O3254       O  0.76936062  0.55847799  0.65321691    -0.50900
O3255       O  0.69195797  0.54947798  0.67598017    -0.74100
O3256       O  0.73011367  0.56894892  0.62855561    -0.80900
O3257       O  0.72734983  0.96020660  0.67721023    -0.82600
O3258       O  0.70015547  0.54697451  0.60023801    -0.78200
O3259       O  0.73754224  0.51653582  0.67818695    -0.89900
O3260       O  0.63340547  0.51527065  0.68353442    -0.75800
O3261       O  0.65341572  0.01430247  0.63790797    -0.85300
O3262       O  0.65918262  0.97476236  0.67119921    -0.85000
O3263       O  0.70304972  0.99589898  0.61845503    -0.71800
O3264       O  0.70731303  0.96317509  0.64872923    -0.83900
Zr3265     Zr  0.60258014  0.89629048  0.62253911     2.26400
Zr3266     Zr  0.64912589  0.99108935  0.60573225     2.06300
Zr3267     Zr  0.66094457  0.92073373  0.66911844     2.10000
Zr3268     Zr  0.60672070  0.97127195  0.65783730     1.78800
O3269       O  0.68187472  0.88113788  0.68015956    -0.92700
O3270       O  0.59071655  0.01644709  0.65032082    -0.40500
O3271       O  0.60770969  0.91660325  0.65563893    -0.77200
O3272       O  0.59975821  0.94982268  0.62474997    -0.95800
O3273       O  0.65052942  0.93720093  0.60315243    -0.89200
O3274       O  0.65464585  0.89934653  0.63666223    -0.92000
C3275       C  0.66482931  0.54099307  0.68691794     1.01800
C3276       C  0.74738396  0.99422215  0.68077574     1.14700
C3277       C  0.72526367  0.57113025  0.61030921     1.05500
O3278       O  0.60678180  0.01215242  0.60773092    -0.94100
O3279       O  0.62187234  0.95386420  0.57746443    -0.89900
O3280       O  0.58901183  0.89673314  0.58773758    -0.83000
C3281       C  0.60047249  0.92082239  0.57441136     1.12100
O3282       O  0.76633312  0.97795512  0.61310971    -0.96100
Zr3283     Zr  0.70213155  0.94048293  0.61663428     1.88900
O3284       O  0.61501194  0.85373305  0.60753930    -0.72800
O3285       O  0.65132251  0.01666114  0.57371545    -0.52000
O3286       O  0.71604323  0.95229275  0.58210985    -0.96700
O3287       O  0.73576526  0.91353489  0.62913486    -0.53900
O3288       O  0.67471492  0.88195392  0.60213338    -0.73300
C3289       C  0.64335052  0.85494431  0.60139913     0.99100
O3290       O  0.53813162  0.86576610  0.61877637    -0.62100
O3291       O  0.64721501  0.92208000  0.70343723    -0.56900
O3292       O  0.57238855  0.84518902  0.64325132    -0.93600
O3293       O  0.60733281  0.85764820  0.67030345    -0.92000
O3294       O  0.57204124  0.94085706  0.68657006    -0.92400
O3295       O  0.54232528  0.94377201  0.65497627    -0.91200
C3296       C  0.57918726  0.83675880  0.65987713     1.17900
H3297       H  0.66291288  0.98133505  0.68477141     0.33800
H3298       H  0.57776689  0.94607711  0.61913156     0.44700
H3299       H  0.65339366  0.87655796  0.63740881     0.38200
H3300       H  0.72413854  0.01170669  0.61120926     0.34700
H3301       H  0.57674292  0.01650315  0.66170578     0.26500
H3302       H  0.65649418  0.04126922  0.57606103     0.32400
H3303       H  0.72066534  0.93330479  0.57762372     0.38300
H3304       H  0.56861204  0.95892175  0.69350419     0.32800
H3305       H  0.64281474  0.89897757  0.70865638     0.31700
H3306       H  0.69035253  0.87504291  0.66817057     0.33400
H3307       H  0.71797334  0.88818095  0.63120503     0.32300
H3308       H  0.53793179  0.95012467  0.64182882     0.36300
H3309       H  0.52923107  0.86904143  0.63144473     0.29100
H3310       H  0.77284646  0.58241882  0.65591396     0.33300
H3311       H  0.77341373  0.96596081  0.60328517     0.36100
H3312       H  0.67008293  0.93980166  0.70936830     0.28700
H3313       H  0.53350692  0.88059423  0.60961792     0.41600
H3314       H  0.62157892  0.03785375  0.61045040     0.31700
H3315       H  0.61316522  0.03948257  0.65116073     0.39300
H3316       H  0.74293581  0.92332906  0.64244673     0.31100
H3317       H  0.67294870  0.01931946  0.56729528     0.31200
H3318       H  0.77947800  0.55992419  0.64009361     0.31500
Zr3319     Zr  0.70746331  0.66624900  0.53617015     2.17500
O3320       O  0.77211126  0.69280415  0.53495640    -0.50900
O3321       O  0.69504413  0.62085915  0.51134624    -0.74100
O3322       O  0.73234173  0.63986764  0.55798314    -0.80900
O3323       O  0.72913650  0.74498974  0.50927427    -0.82600
O3324       O  0.70112611  0.63045128  0.58595188    -0.78200
O3325       O  0.73785853  0.69816485  0.50771470    -0.89900
O3326       O  0.63665235  0.59659408  0.50331545    -0.75800
O3327       O  0.65466942  0.61771138  0.54903881    -0.85300
O3328       O  0.66148947  0.66259629  0.51535217    -0.85000
O3329       O  0.70396460  0.68564817  0.56858307    -0.71800
O3330       O  0.70878772  0.72243815  0.53794717    -0.83900
Zr3331     Zr  0.60353768  0.68444078  0.56352845     2.26400
Zr3332     Zr  0.64986876  0.63675655  0.58115418     2.06300
Zr3333     Zr  0.66262458  0.71800137  0.51714417     2.10000
Zr3334     Zr  0.60864496  0.61396515  0.52836926     1.78800
O3335       O  0.68299123  0.77767844  0.50491176    -0.92700
O3336       O  0.58949045  0.55155282  0.53405413    -0.40500
O3337       O  0.60912999  0.66928473  0.53049190    -0.77200
O3338       O  0.60100157  0.62818514  0.56142239    -0.95800
O3339       O  0.65128498  0.69210678  0.58335680    -0.89200
O3340       O  0.65570003  0.73331707  0.54942465    -0.92000
C3341       C  0.66817670  0.60223738  0.50022280     1.01800
C3342       C  0.74944642  0.73116828  0.50600810     1.14700
C3343       C  0.72659271  0.63178958  0.57607198     1.05500
O3344       O  0.60604166  0.57358822  0.58133516    -0.94100
O3345       O  0.62193060  0.64692079  0.60906547    -0.89900
O3346       O  0.58809094  0.66964621  0.59809080    -0.83000
C3347       C  0.59964285  0.65762491  0.61170183     1.12100
O3348       O  0.76700840  0.76807928  0.57488845    -0.96100
Zr3349     Zr  0.70299973  0.74026060  0.56983749     1.88900
O3350       O  0.61536970  0.73965605  0.57801517    -0.72800
O3351       O  0.65539823  0.61839995  0.61403165    -0.52000
O3352       O  0.71615410  0.74357745  0.60451250    -0.96700
O3353       O  0.73730277  0.80001970  0.55635324    -0.53900
O3354       O  0.67514560  0.77196881  0.58305159    -0.73300
C3355       C  0.64364935  0.76732313  0.58371952     0.99100
O3356       O  0.53893407  0.65048875  0.56643004    -0.62100
O3357       O  0.64861371  0.69987239  0.48321312    -0.56900
O3358       O  0.57393596  0.70576535  0.54283107    -0.93600
O3359       O  0.60870107  0.72704992  0.51564381    -0.92000
O3360       O  0.57542521  0.61307839  0.49957481    -0.92400
O3361       O  0.54439809  0.57650476  0.53105337    -0.91200
C3362       C  0.58072334  0.72038930  0.52606867     1.17900
H3363       H  0.66575043  0.65976877  0.50186544     0.33800
H3364       H  0.57879461  0.60980908  0.56675506     0.44700
H3365       H  0.65431556  0.75474886  0.54836245     0.38200
H3366       H  0.72470385  0.69048143  0.57607683     0.34700
H3367       H  0.57926109  0.53964112  0.52146998     0.26500
H3368       H  0.65869088  0.59755380  0.61260578     0.32400
H3369       H  0.72175119  0.76775105  0.60848209     0.38300
H3370       H  0.57346692  0.59319794  0.49157648     0.32800
H3371       H  0.63422608  0.71048751  0.47886073     0.31700
H3372       H  0.69044173  0.79281008  0.51671794     0.33400
H3373       H  0.71964718  0.80751830  0.55356026     0.32300
H3374       H  0.53592891  0.59287199  0.53511316     0.36300
H3375       H  0.53052964  0.63839969  0.55370478     0.29100
H3376       H  0.77700593  0.67334412  0.53197260     0.33300
H3377       H  0.77336566  0.78831079  0.58381668     0.36100
H3378       H  0.67154527  0.71362018  0.47629639     0.28700
H3379       H  0.53387221  0.63099905  0.57564568     0.41600
H3380       H  0.61503681  0.56268561  0.57194776     0.31700
H3381       H  0.61172122  0.55062303  0.53532995     0.39300
H3382       H  0.74500036  0.79662915  0.54334325     0.31100
H3383       H  0.67833867  0.63757822  0.61917329     0.31200
H3384       H  0.78094267  0.70057458  0.54838652     0.31500
C3385       C  0.74807648  0.62157653  0.58678745    -0.12800
C3386       C  0.74752000  0.60265099  0.59964418    -0.14400
C3387       C  0.64032060  0.79642372  0.59005722    -0.12800
C3388       C  0.64026715  0.82290731  0.59454087    -0.14400
C3389       C  0.67681679  0.58238954  0.46518965    -0.12800
C3390       C  0.67414351  0.58996640  0.48184444    -0.14400
C3391       C  0.57925178  0.90321787  0.53784316    -0.12800
C3392       C  0.58930620  0.91063185  0.55452139    -0.14400
C3393       C  0.62291698  0.86845341  0.43290628    -0.12800
C3394       C  0.64167329  0.88724596  0.42011542    -0.14400
C3395       C  0.81466746  0.66925427  0.42414924    -0.12800
C3396       C  0.84111094  0.69585432  0.42849680    -0.14400
C3397       C  0.53163351  0.73891212  0.51708732    -0.12800
C3398       C  0.55419384  0.72993818  0.51945991    -0.14400
C3399       C  0.78805054  0.75197687  0.50231793    -0.12800
C3400       C  0.81961097  0.76107873  0.49981827    -0.14400
C3401       C  0.57668982  0.65313548  0.64799633    -0.12800
C3402       C  0.58740511  0.65613474  0.63142638    -0.14400
C3403       C  0.52973115  0.76911813  0.66889673    -0.12800
C3404       C  0.55245511  0.80058533  0.66637699    -0.14400
C3405       C  0.78710327  0.51208330  0.68364968    -0.12800
C3406       C  0.81856412  0.53476692  0.68611120    -0.14400
C3407       C  0.67265299  0.56896650  0.72202406    -0.12800
C3408       C  0.67029496  0.55881755  0.70537684    -0.14400
C3409       C  0.61964021  0.72955998  0.75378933    -0.12800
C3410       C  0.63816292  0.72958169  0.76675606    -0.14400
C3411       C  0.81256838  0.62159208  0.76243757    -0.12800
C3412       C  0.83939125  0.62209068  0.75799033    -0.14400
C3413       C  0.77826427  0.88901063  0.09972690    -0.12800
C3414       C  0.77811039  0.87008165  0.08694105    -0.14400
C3415       C  0.88656757  0.69682379  0.09101928    -0.12800
C3416       C  0.88631330  0.67032045  0.09571542    -0.14400
C3417       C  0.93828556  0.83609310  0.13197957    -0.12800
C3418       C  0.94860110  0.83826015  0.14857329    -0.14400
C3419       C  0.99622128  0.72203224  0.16962044    -0.12800
C3420       C  0.97338202  0.69054801  0.16732170    -0.14400
C3421       C  0.70751499  0.95611177  0.18654797    -0.12800
C3422       C  0.73899068  0.97884576  0.18415294    -0.14400
C3423       C  0.60789598  0.93115233  0.31509420    -0.12800
C3424       C  0.60033113  0.92094872  0.29845012    -0.14400
C3425       C  0.91966917  0.83733094  0.37150585    -0.12800
C3426       C  0.92738658  0.83453468  0.38810137    -0.14400
C3427       C  0.85512395  0.93232729  0.20508447    -0.12800
C3428       C  0.85236122  0.92154118  0.22161953    -0.14400
C3429       C  0.88619407  0.76010634  0.26615844    -0.12800
C3430       C  0.90495534  0.76015979  0.25331736    -0.14400
C3431       C  0.71329074  0.86790993  0.26182136    -0.12800
C3432       C  0.68674660  0.86787084  0.25745899    -0.14400
C3433       C  0.75706100  0.72149165  0.35052830    -0.12800
C3434       C  0.74823054  0.68997838  0.35290743    -0.14400
C3435       C  0.76858969  0.97716895  0.33520552    -0.12800
C3436       C  0.77765264  0.95465674  0.33281681    -0.14400
C3437       C  0.91843987  0.56033624  0.81459729    -0.12800
C3438       C  0.92629046  0.57078303  0.79803015    -0.14400
C3439       C  0.75499732  0.51269107  0.83713674    -0.12800
C3440       C  0.74571386  0.53506382  0.83470535    -0.14400
C3441       C  0.76879910  0.76979395  0.85100249    -0.12800
C3442       C  0.77786861  0.80133107  0.85359969    -0.14400
C3443       C  0.85632390  0.90407154  0.98187112    -0.12800
C3444       C  0.85377684  0.91151968  0.96518632    -0.14400
C3445       C  0.93836918  0.58359154  0.05513855    -0.12800
C3446       C  0.94885408  0.59162633  0.03857258    -0.14400
C3447       C  0.60696366  0.65526781  0.87181958    -0.12800
C3448       C  0.59905408  0.65823496  0.88835289    -0.14400
C3449       C  0.90537366  0.62341747  0.93350701    -0.12800
C3450       C  0.88700853  0.60459339  0.92055167    -0.14400
C3451       C  0.68748177  0.79716909  0.92941404    -0.12800
C3452       C  0.71403299  0.82368204  0.92507000    -0.14400
C3453       C  0.99619176  0.75363876  0.01778198    -0.12800
C3454       C  0.97351745  0.76254438  0.02011640    -0.14400
C3455       C  0.73977563  0.74075825  0.00270770    -0.12800
C3456       C  0.70829243  0.73203233  0.00029050    -0.14400
loop_ 
_geom_bond_atom_site_label_1 
_geom_bond_atom_site_label_2 
_geom_bond_distance 
_geom_bond_site_symmetry_2 
_ccdc_geom_bond_type 
Zr1           O9   2.376       .  S
Zr1          O10   2.397   1_656  S
Zr1          O11   2.406   1_655  S
Zr1          O12   2.418   1_655  S
Zr1        O1730   2.444       .  S
Zr1        O1731   2.447   1_556  S
Zr1        O1732   2.452       .  S
Zr1        O1735   2.380   1_556  S
O2        Zr1729   2.446       .  S
O2           H58   0.990       .  S
O2           H66   0.990       .  S
O3        Zr1729   2.454   1_554  S
O3           C23   1.287       .  A
O4        Zr1729   2.450       .  S
O4           C25   1.282       .  A
O5          Zr15   2.575       .  S
O5           C24   1.310       .  A
O6        Zr1742   2.398       .  S
O6           C25   1.273       .  A
O7        Zr1729   2.380   1_554  S
O7         C1752   1.266       .  A
O8          Zr16   2.429   1_654  S
O8         C1751   1.282       .  A
O9          Zr14   2.397   1_655  S
O9          Zr16   2.390   1_655  S
O10         Zr15   2.387       .  S
O10         Zr16   2.385   1_554  S
O10          H45   0.964       .  S
O11         Zr14   2.408       .  S
O11         Zr31   2.393       .  S
O11          H48   0.964   1_455  S
O12         Zr15   2.392   1_556  S
O12         Zr31   2.376       .  S
Zr13         O19   2.409       .  S
Zr13         O20   2.395       .  S
Zr13         O21   2.358       .  S
Zr13         O22   2.404       .  S
Zr13         O38   2.440       .  S
Zr13         O32   2.401       .  S
Zr13         O40   2.395       .  S
Zr13         O28   2.464       .  S
Zr14         O20   2.387       .  S
Zr14         O21   2.379       .  S
Zr14         O33   2.445   1_455  S
Zr14         O26   2.437   1_455  S
Zr14         O27   2.426       .  S
Zr14       O1734   2.400   1_455  S
Zr15         O19   2.412   1_554  S
Zr15         O22   2.377   1_554  S
Zr15         O17   2.434       .  S
Zr15         O39   2.436       .  S
Zr15         O41   2.566       .  S
Zr16         O19   2.397       .  S
Zr16         O20   2.414       .  S
Zr16         O42   2.436   1_556  S
Zr16         O43   2.437       .  S
Zr16         O18   2.437   1_455  S
O17          H54   0.990       .  S
O18          H49   0.990       .  S
O18          H63   0.990       .  S
O20          H46   0.966       .  S
O21         Zr31   2.362       .  S
O22         Zr31   2.378       .  S
O22          H47   0.965       .  S
C23        O1736   1.281       .  A
C23         C854   1.441       .  S
C24        O1735   1.266   1_455  A
C24        C2589   1.477   1_455  S
C25         C857   1.426       .  S
O26          H62   0.988       .  S
O27          C29   1.280       .  A
O28          C29   1.289       .  A
C29         C856   1.445       .  S
O30         Zr31   2.439       .  S
O30          H59   0.990       .  S
Zr31         O34   2.437       .  S
Zr31         O35   2.439       .  S
Zr31         O36   2.420       .  S
O32          C37   1.277       .  A
O33          H50   0.990       .  S
O33          H65   0.991       .  S
O34          H51   0.990       .  S
O35          H55   0.990       .  S
O35          H64   0.990       .  S
O36          C37   1.281       .  A
C37         C859   1.411       .  S
O38          H57   0.990       .  S
O38          H61   0.990       .  S
O39          H53   0.990       .  S
O39          H60   0.990       .  S
O40          C44   1.276       .  A
O41          C44   1.312   1_554  A
O42          H52   0.990       .  S
O43          H56   0.990       .  S
C44         C864   1.480   1_556  S
Zr67        O939   2.378       .  S
Zr67        O940   2.395   1_545  S
Zr67        O941   2.409   1_545  S
Zr67        O942   2.416   1_545  S
Zr67         O68   2.447       .  S
Zr67         O69   2.450       .  S
Zr67         O70   2.450       .  S
Zr67         O73   2.379       .  S
O68         H124   0.990       .  S
O68         H132   0.990       .  S
O69          C89   1.285       .  A
O70          C91   1.282       .  A
O71         Zr81   2.577       .  S
O71          C90   1.311       .  A
O72        Zr944   2.399   1_545  S
O72          C91   1.274       .  A
O73         C954   1.265   1_545  A
O74        Zr946   2.425   1_545  S
O74          C89   1.280       .  A
O75         Zr80   2.398       .  S
O75         Zr82   2.387       .  S
O75        Zr931   2.376       .  S
O76         Zr81   2.388       .  S
O76         Zr82   2.384       .  S
O76        Zr931   2.395       .  S
O76         H111   0.964       .  S
O77         Zr80   2.409       .  S
O77         Zr97   2.391       .  S
O77        Zr931   2.407       .  S
O77         H114   0.964       .  S
O78         Zr81   2.392       .  S
O78         Zr97   2.377       .  S
O78        Zr931   2.418       .  S
Zr79         O85   2.410       .  S
Zr79         O86   2.397       .  S
Zr79         O87   2.361       .  S
Zr79         O88   2.402       .  S
Zr79        O104   2.439       .  S
Zr79         O98   2.406       .  S
Zr79        O106   2.402       .  S
Zr79         O94   2.462       .  S
Zr80         O86   2.384       .  S
Zr80         O87   2.382       .  S
Zr80         O99   2.447       .  S
Zr80         O92   2.437       .  S
Zr80         O93   2.419       .  S
Zr80        O936   2.399       .  S
Zr81         O85   2.411       .  S
Zr81         O88   2.378       .  S
Zr81         O83   2.434       .  S
Zr81        O105   2.438       .  S
Zr81        O107   2.568       .  S
Zr82         O85   2.403       .  S
Zr82         O86   2.416       .  S
Zr82        O108   2.435       .  S
Zr82        O109   2.435       .  S
Zr82         O84   2.441       .  S
Zr82        O938   2.431       .  S
O83         H120   0.990       .  S
O84         H115   0.990       .  S
O84         H129   0.990       .  S
O86         H112   0.966       .  S
O87         Zr97   2.364       .  S
O88         Zr97   2.381       .  S
O88         H113   0.965       .  S
C89         C845   1.439       .  S
C90         O937   1.265       .  A
C90        C1711   1.478       .  S
C91         C858   1.425       .  S
O92         H992   0.988       .  S
O93          C95   1.278       .  A
O94          C95   1.288       .  A
C95         C852   1.441       .  S
O96         Zr97   2.439       .  S
O96         H125   0.990       .  S
Zr97        O100   2.437       .  S
Zr97        O101   2.439       .  S
Zr97        O102   2.418       .  S
O98         C103   1.278       .  A
O99         H116   0.990       .  S
O99         H131   0.991       .  S
O100        H117   0.990       .  S
O101        H121   0.990       .  S
O101        H130   0.990       .  S
O102        C103   1.280       .  A
C103        C860   1.412       .  S
O104        H123   0.990       .  S
O104        H127   0.990       .  S
O105        H119   0.990       .  S
O105        H126   0.990       .  S
O106        C110   1.278       .  A
O107        C110   1.313       .  A
O108        H118   0.990       .  S
O109        H122   0.990       .  S
C110        C850   1.484       .  S
H128        O956   0.989       .  S
Zr133       O141   2.378       .  S
Zr133       O142   2.396       .  S
Zr133       O143   2.413       .  S
Zr133       O144   2.416       .  S
Zr133       O134   2.446       .  S
Zr133       O135   2.455       .  S
Zr133       O136   2.446       .  S
Zr133       O139   2.380       .  S
O134        H190   0.990       .  S
O134        H198   0.990       .  S
O135        C155   1.287       .  A
O136        C157   1.282       .  A
O137       Zr147   2.576       .  S
O137        C156   1.310       .  A
O138       Zr146   2.397       .  S
O138        C157   1.274       .  A
O139        C156   1.265       .  A
O140       Zr148   2.426       .  S
O140        C155   1.280       .  A
O141       Zr146   2.402       .  S
O141       Zr148   2.387       .  S
O142       Zr147   2.388       .  S
O142       Zr148   2.388       .  S
O142        H177   0.964       .  S
O143       Zr146   2.408       .  S
O143       Zr163   2.391       .  S
O143        H180   0.964       .  S
O144       Zr147   2.389       .  S
O144       Zr163   2.374       .  S
Zr145       O151   2.407       .  S
Zr145       O152   2.391       .  S
Zr145       O153   2.362       .  S
Zr145       O154   2.401       .  S
Zr145       O170   2.440       .  S
Zr145       O164   2.404       .  S
Zr145       O172   2.395       .  S
Zr145       O160   2.456       .  S
Zr146       O152   2.381       .  S
Zr146       O153   2.375       .  S
Zr146       O165   2.445       .  S
Zr146       O158   2.435       .  S
Zr146       O159   2.429       .  S
Zr147       O151   2.409       .  S
Zr147       O154   2.376       .  S
Zr147       O149   2.434       .  S
Zr147       O171   2.435       .  S
Zr147       O173   2.567       .  S
Zr148       O151   2.401       .  S
Zr148       O152   2.414       .  S
Zr148       O174   2.435       .  S
Zr148       O175   2.438       .  S
Zr148       O150   2.441       .  S
O149        H186   0.990       .  S
O150        H181   0.990       .  S
O150        H195   0.990       .  S
O152        H178   0.965       .  S
O153       Zr163   2.366       .  S
O154       Zr163   2.380       .  S
O154        H179   0.965       .  S
C155        C833   1.440       .  S
C156        C841   1.477       .  S
C157        C837   1.423       .  S
O158        H194   0.988       .  S
O159        C161   1.280       .  A
O160        C161   1.287       .  A
C161        C836   1.444       .  S
O162       Zr163   2.439       .  S
O162        H191   0.990       .  S
Zr163       O166   2.438       .  S
Zr163       O167   2.437       .  S
Zr163       O168   2.415       .  S
O164        C169   1.278       .  A
O165        H182   0.989       .  S
O165        H197   0.991       .  S
O166        H183   0.990       .  S
O167        H187   0.990       .  S
O167        H196   0.990       .  S
O168        C169   1.280       .  A
C169        C839   1.410       .  S
O170        H189   0.991       .  S
O170        H193   0.990       .  S
O171        H185   0.990       .  S
O171        H192   0.990       .  S
O172        C176   1.277       .  A
O173        C176   1.313       .  A
O174        H184   0.990       .  S
O175        H188   0.990       .  S
C176        C844   1.481       .  S
Zr199       O207   2.376       .  S
Zr199       O208   2.395   1_655  S
Zr199       O209   2.407   1_655  S
Zr199       O210   2.415   1_655  S
Zr199      O1928   2.445       .  S
Zr199      O1929   2.451       .  S
Zr199      O1930   2.446       .  S
Zr199      O1933   2.377       .  S
O200      Zr1927   2.447       .  S
O200        H256   0.990       .  S
O200        H264   0.991       .  S
O201      Zr1927   2.450       .  S
O201        C221   1.286       .  A
O202      Zr1927   2.448       .  S
O202        C223   1.282       .  A
O203       Zr213   2.576       .  S
O203        C222   1.310       .  A
O204      Zr1940   2.400       .  S
O204        C223   1.274       .  A
O205      Zr1927   2.378       .  S
O205       C1950   1.265       .  A
O206       Zr214   2.430   1_655  S
O206       C1949   1.282       .  A
O207       Zr212   2.398   1_655  S
O207       Zr214   2.389   1_655  S
O208       Zr213   2.386       .  S
O208       Zr214   2.384       .  S
O208        H243   0.964       .  S
O209       Zr212   2.407       .  S
O209       Zr229   2.387       .  S
O209        H246   0.964   1_455  S
O210       Zr213   2.388       .  S
O210       Zr229   2.375       .  S
Zr211       O217   2.407       .  S
Zr211       O218   2.395       .  S
Zr211       O219   2.360       .  S
Zr211       O220   2.403       .  S
Zr211       O236   2.440       .  S
Zr211       O230   2.407       .  S
Zr211       O238   2.394       .  S
Zr211       O226   2.458       .  S
Zr212       O218   2.384       .  S
Zr212       O219   2.377       .  S
Zr212       O231   2.444   1_455  S
Zr212       O224   2.434   1_455  S
Zr212       O225   2.424       .  S
Zr212      O1932   2.398   1_455  S
Zr213       O217   2.410       .  S
Zr213       O220   2.374       .  S
Zr213       O215   2.433       .  S
Zr213       O237   2.435       .  S
Zr213       O239   2.564       .  S
Zr214       O217   2.399       .  S
Zr214       O218   2.416       .  S
Zr214       O240   2.435       .  S
Zr214       O241   2.436       .  S
Zr214       O216   2.440   1_455  S
O215        H252   0.990       .  S
O216        H247   0.991       .  S
O216        H261   0.990       .  S
O218        H244   0.966       .  S
O219       Zr229   2.363       .  S
O220       Zr229   2.380       .  S
O220        H245   0.965       .  S
C221       O1934   1.281       .  A
C221        C826   1.441       .  S
C222       O1933   1.264   1_455  A
C222       C2555   1.477   1_455  S
C223        C838   1.424       .  S
O224        H260   0.988       .  S
O225        C227   1.279       .  A
O226        C227   1.288       .  A
C227        C832   1.441       .  S
O228       Zr229   2.439       .  S
O228        H257   0.990       .  S
Zr229       O232   2.436       .  S
Zr229       O233   2.438       .  S
Zr229       O234   2.410       .  S
O230        C235   1.278       .  A
O231        H248   0.989       .  S
O231        H263   0.991       .  S
O232        H249   0.990       .  S
O233        H253   0.990       .  S
O233        H262   0.990       .  S
O234        C235   1.279       .  A
C235        C840   1.410       .  S
O236        H255   0.990       .  S
O236        H259   0.990       .  S
O237        H251   0.990       .  S
O237        H258   0.990       .  S
O238        C242   1.276       .  A
O239        C242   1.312       .  A
O240        H250   0.990       .  S
O241        H254   0.990       .  S
C242        C829   1.479       .  S
Zr265      O1137   2.375       .  S
Zr265      O1138   2.397       .  S
Zr265      O1139   2.408       .  S
Zr265      O1140   2.414       .  S
Zr265       O266   2.445       .  S
Zr265       O267   2.451       .  S
Zr265       O268   2.446       .  S
Zr265       O271   2.375       .  S
O266        H322   0.990       .  S
O266        H330   0.991       .  S
O267        C287   1.286       .  A
O268        C289   1.282       .  A
O269       Zr279   2.578       .  S
O269       C1152   1.311   1_545  A
O270      Zr1142   2.398       .  S
O270        C289   1.274       .  A
O271        C288   1.265       .  A
O272      Zr1144   2.434       .  S
O272        C287   1.283       .  A
O273       Zr278   2.399   1_565  S
O273       Zr280   2.389   1_565  S
O273      Zr1129   2.375       .  S
O274       Zr279   2.386       .  S
O274       Zr280   2.387       .  S
O274      Zr1129   2.395   1_545  S
O274        H309   0.964       .  S
O275       Zr278   2.404   1_565  S
O275       Zr295   2.393   1_565  S
O275      Zr1129   2.410       .  S
O275       H1176   0.965       .  S
O276       Zr279   2.388       .  S
O276       Zr295   2.376       .  S
O276      Zr1129   2.417   1_545  S
Zr277       O283   2.405       .  S
Zr277       O284   2.391       .  S
Zr277       O285   2.361       .  S
Zr277       O286   2.402       .  S
Zr277       O302   2.439       .  S
Zr277       O296   2.398       .  S
Zr277       O304   2.393       .  S
Zr277       O292   2.456       .  S
Zr278       O284   2.384       .  S
Zr278       O285   2.376       .  S
Zr278       O297   2.445   1_545  S
Zr278       O290   2.433   1_545  S
Zr278       O291   2.425       .  S
Zr278      O1134   2.398   1_545  S
Zr279       O283   2.410       .  S
Zr279       O286   2.373       .  S
Zr279       O281   2.433       .  S
Zr279       O303   2.435       .  S
Zr279       O305   2.568       .  S
Zr280       O283   2.399       .  S
Zr280       O284   2.415       .  S
Zr280       O306   2.435       .  S
Zr280       O307   2.440       .  S
Zr280       O282   2.439   1_545  S
Zr280      O1136   2.432   1_545  S
O281        H318   0.990       .  S
O282        H313   0.990       .  S
O282       H1191   0.990       .  S
O284        H310   0.965       .  S
O285       Zr295   2.362       .  S
O286       Zr295   2.377       .  S
O286        H311   0.965       .  S
C287        C835   1.443       .  S
C288       O1133   1.311       .  A
C288        C830   1.475       .  S
C289        C821   1.424       .  S
O290       H1190   0.989       .  S
O291        C293   1.279       .  A
O292        C293   1.287       .  A
C293        C853   1.442       .  S
O294       Zr295   2.439       .  S
O294        H323   0.990       .  S
Zr295       O298   2.436       .  S
Zr295       O299   2.440       .  S
Zr295       O300   2.421       .  S
O296        C301   1.277       .  A
O297        H314   0.989       .  S
O297        H329   0.991       .  S
O298        H315   0.990       .  S
O299        H319   0.990       .  S
O299        H328   0.990       .  S
O300        C301   1.281       .  A
C301        C824   1.409       .  S
O302        H321   0.990       .  S
O302        H325   0.990       .  S
O303        H317   0.990       .  S
O303        H324   0.990       .  S
O304        C308   1.277       .  A
O305        C308   1.313       .  A
O306        H316   0.990       .  S
O307        H320   0.990       .  S
C308        C828   1.480       .  S
H312       O1139   0.965       .  S
H326       O1154   0.989       .  S
H327       O1146   0.990       .  S
Zr331       O339   2.376       .  S
Zr331       O340   2.396       .  S
Zr331       O341   2.410       .  S
Zr331       O342   2.418       .  S
Zr331       O332   2.446       .  S
Zr331       O333   2.451       .  S
Zr331       O334   2.450       .  S
Zr331       O337   2.380       .  S
O332        H388   0.990       .  S
O332        H396   0.990       .  S
O333        C353   1.286       .  A
O334        C355   1.283       .  A
O335       Zr345   2.576       .  S
O335        C354   1.310       .  A
O336       Zr344   2.394       .  S
O336        C355   1.273       .  A
O337        C354   1.265       .  A
O338       Zr346   2.427       .  S
O338        C353   1.281       .  A
O339       Zr344   2.399       .  S
O339       Zr346   2.388       .  S
O340       Zr345   2.388       .  S
O340       Zr346   2.389       .  S
O340        H375   0.964       .  S
O341       Zr344   2.409       .  S
O341       Zr361   2.390       .  S
O341        H378   0.964       .  S
O342       Zr345   2.389       .  S
O342       Zr361   2.377       .  S
Zr343       O349   2.405       .  S
Zr343       O350   2.392       .  S
Zr343       O351   2.363       .  S
Zr343       O352   2.403       .  S
Zr343       O368   2.440       .  S
Zr343       O362   2.400       .  S
Zr343       O370   2.396       .  S
Zr343       O358   2.455       .  S
Zr344       O350   2.383       .  S
Zr344       O351   2.378       .  S
Zr344       O363   2.445       .  S
Zr344       O356   2.433       .  S
Zr344       O357   2.426       .  S
Zr345       O349   2.413       .  S
Zr345       O352   2.377       .  S
Zr345       O347   2.433       .  S
Zr345       O369   2.435   1_554  S
Zr345       O371   2.565       .  S
Zr346       O349   2.399       .  S
Zr346       O350   2.412       .  S
Zr346       O372   2.435       .  S
Zr346       O373   2.437       .  S
Zr346       O348   2.441       .  S
O347        H384   0.990       .  S
O348        H379   0.990       .  S
O348        H393   0.990       .  S
O350        H376   0.966       .  S
O351       Zr361   2.365       .  S
O352       Zr361   2.380       .  S
O352        H377   0.965       .  S
C353        C851   1.439   1_554  S
C354        C863   1.477       .  S
C355        C822   1.423       .  S
O356        H392   0.988       .  S
O357        C359   1.279       .  A
O358        C359   1.287       .  A
C359        C825   1.443       .  S
O360       Zr361   2.440       .  S
O360        H389   0.990       .  S
Zr361       O364   2.436       .  S
Zr361       O365   2.440       .  S
Zr361       O366   2.416       .  S
O362        C367   1.276       .  A
O363        H380   0.990       .  S
O363        H395   0.991       .  S
O364        H381   0.990       .  S
O365        H385   0.990       .  S
O365        H394   0.990       .  S
O366        C367   1.280       .  A
C367        C823   1.409       .  S
O368        H387   0.990       .  S
O368        H391   0.990       .  S
O369        H383   0.990       .  S
O369        H390   0.990       .  S
O370        C374   1.277       .  A
O371        C374   1.312       .  A
O372        H382   0.990   1_554  S
O373        H386   0.990       .  S
C374        C862   1.481       .  S
Zr397       O405   2.379       .  S
Zr397       O406   2.396       .  S
Zr397       O407   2.408       .  S
Zr397       O408   2.419       .  S
Zr397       O398   2.446       .  S
Zr397       O399   2.456       .  S
Zr397       O400   2.452       .  S
Zr397       O403   2.379       .  S
O398        H454   0.990       .  S
O398        H462   0.991       .  S
O399        C419   1.287       .  A
O400        C421   1.283       .  A
O401       Zr411   2.576       .  S
O401        C420   1.311       .  A
O402       Zr410   2.398       .  S
O402        C421   1.273       .  A
O403        C420   1.266       .  A
O404       Zr412   2.430       .  S
O404        C419   1.282       .  A
O405       Zr410   2.400       .  S
O405       Zr412   2.390       .  S
O406       Zr411   2.387       .  S
O406       Zr412   2.386       .  S
O406        H441   0.964       .  S
O407       Zr410   2.406       .  S
O407       Zr427   2.390       .  S
O407        H444   0.964       .  S
O408       Zr411   2.390       .  S
O408       Zr427   2.378       .  S
Zr409       O415   2.405       .  S
Zr409       O416   2.394       .  S
Zr409       O417   2.360       .  S
Zr409       O418   2.402       .  S
Zr409       O434   2.438       .  S
Zr409       O428   2.404       .  S
Zr409       O436   2.396       .  S
Zr409       O424   2.463       .  S
Zr410       O416   2.385       .  S
Zr410       O417   2.378       .  S
Zr410       O429   2.446       .  S
Zr410       O422   2.436       .  S
Zr410       O423   2.424       .  S
Zr411       O415   2.407       .  S
Zr411       O418   2.377       .  S
Zr411       O413   2.433       .  S
Zr411       O435   2.437       .  S
Zr411       O437   2.565       .  S
Zr412       O415   2.398       .  S
Zr412       O416   2.417       .  S
Zr412       O438   2.435       .  S
Zr412       O439   2.438       .  S
Zr412       O414   2.441       .  S
O413        H450   0.990       .  S
O414        H445   0.990       .  S
O414        H459   0.990       .  S
O416        H442   0.965       .  S
O417       Zr427   2.362       .  S
O418       Zr427   2.380       .  S
O418        H443   0.965       .  S
C419        C855   1.443       .  S
C420        C849   1.479       .  S
C421        C818   1.425       .  S
O422        H458   0.988       .  S
O423        C425   1.279       .  A
O424        C425   1.289       .  A
C425        C815   1.444       .  S
O426       Zr427   2.440       .  S
O426        H455   0.990       .  S
Zr427       O430   2.437       .  S
Zr427       O431   2.440       .  S
Zr427       O432   2.421       .  S
O428        C433   1.278       .  A
O429        H446   0.990       .  S
O429        H461   0.991       .  S
O430        H447   0.990       .  S
O431        H451   0.990       .  S
O431        H460   0.990       .  S
O432        C433   1.281       .  A
C433        C819   1.413       .  S
O434        H453   0.991       .  S
O434        H457   0.990       .  S
O435        H449   0.990       .  S
O435        H456   0.990       .  S
O436        C440   1.277       .  A
O437        C440   1.313       .  A
O438        H448   0.990       .  S
O439        H452   0.990       .  S
C440        C848   1.481       .  S
Zr463       O471   2.377       .  S
Zr463      O2200   2.396   1_455  S
Zr463      O2201   2.410       .  S
Zr463      O2202   2.415   1_455  S
Zr463       O464   2.446       .  S
Zr463       O465   2.455       .  S
Zr463       O466   2.451       .  S
Zr463       O469   2.379       .  S
O464        H520   0.990       .  S
O464        H528   0.991       .  S
O465        C485   1.287       .  A
O466        C487   1.282       .  A
O467       Zr477   2.577       .  S
O467       C2214   1.311       .  A
O468      Zr2204   2.398       .  S
O468        C487   1.273       .  A
O469        C486   1.266       .  A
O470      Zr2206   2.427   1_455  S
O470        C485   1.281       .  A
O471      Zr2204   2.399       .  S
O471      Zr2206   2.391   1_455  S
O472       Zr477   2.390       .  S
O472       Zr478   2.389       .  S
O472      Zr2191   2.396       .  S
O472        H507   0.964       .  S
O473       Zr476   2.409       .  S
O473       Zr493   2.394       .  S
O473      Zr2191   2.409       .  S
O473       H2238   0.964       .  S
O474       Zr477   2.390       .  S
O474       Zr493   2.377       .  S
O474      Zr2191   2.416       .  S
Zr475       O481   2.404       .  S
Zr475       O482   2.394       .  S
Zr475       O483   2.362       .  S
Zr475       O484   2.400       .  S
Zr475       O500   2.439       .  S
Zr475       O494   2.403       .  S
Zr475       O502   2.395       .  S
Zr475       O490   2.456       .  S
Zr476       O482   2.384       .  S
Zr476       O483   2.379       .  S
Zr476      O2199   2.399       .  S
Zr476       O495   2.445       .  S
Zr476       O488   2.436       .  S
Zr476       O489   2.423       .  S
Zr476      O2196   2.397       .  S
Zr477       O481   2.408       .  S
Zr477       O484   2.374       .  S
Zr477       O479   2.434       .  S
Zr477       O501   2.436       .  S
Zr477       O503   2.568       .  S
Zr478       O481   2.399       .  S
Zr478       O482   2.417       .  S
Zr478      O2199   2.389       .  S
Zr478       O504   2.435       .  S
Zr478       O505   2.440       .  S
Zr478       O480   2.442       .  S
Zr478      O2198   2.430       .  S
O479        H516   0.990       .  S
O480        H511   0.990       .  S
O480       H2253   0.990       .  S
O482        H508   0.965       .  S
O483       Zr493   2.364       .  S
O484       Zr493   2.379       .  S
O484        H509   0.965       .  S
C485        C809   1.441       .  S
C486       O2195   1.311   1_455  A
C486        C811   1.477       .  S
C487        C817   1.425       .  S
O488       H2252   0.988       .  S
O489        C491   1.279       .  A
O490        C491   1.287       .  A
C491        C846   1.440       .  S
O492       Zr493   2.440       .  S
O492        H521   0.990       .  S
Zr493       O496   2.437       .  S
Zr493       O497   2.439       .  S
Zr493       O498   2.421       .  S
O494        C499   1.277       .  A
O495        H512   0.989       .  S
O495       H2255   0.991       .  S
O496        H513   0.990       .  S
O497        H517   0.990       .  S
O497        H526   0.990       .  S
O498        C499   1.281       .  A
C499        C820   1.413       .  S
O500        H519   0.990       .  S
O500        H523   0.990       .  S
O501        H515   0.990       .  S
O501        H522   0.990       .  S
O502        C506   1.276       .  A
O503        C506   1.313       .  A
O504        H514   0.990       .  S
O505        H518   0.990       .  S
C506        C814   1.483       .  S
H510       O2201   0.964       .  S
H524       O2216   0.988       .  S
H525       O2208   0.990       .  S
H527       O2223   0.991       .  S
Zr529       O537   2.376       .  S
Zr529      O2266   2.396   1_455  S
Zr529      O2267   2.409       .  S
Zr529      O2268   2.416   1_455  S
Zr529       O530   2.447       .  S
Zr529       O531   2.451       .  S
Zr529       O532   2.445       .  S
Zr529       O535   2.377       .  S
O530        H586   0.990       .  S
O530        H594   0.991       .  S
O531        C551   1.286       .  A
O532        C553   1.281       .  A
O533       Zr543   2.572       .  S
O533       C2280   1.310       .  A
O534      Zr2270   2.402       .  S
O534        C553   1.274       .  A
O535        C552   1.265       .  A
O536      Zr2272   2.426   1_455  S
O536        C551   1.281       .  A
O537      Zr2270   2.398       .  S
O537      Zr2272   2.388   1_455  S
O538       Zr543   2.387       .  S
O538       Zr544   2.389       .  S
O538      Zr2257   2.396       .  S
O538        H573   0.964       .  S
O539       Zr542   2.409       .  S
O539       Zr559   2.391       .  S
O539      Zr2257   2.410       .  S
O539       H2304   0.964       .  S
O540       Zr543   2.390       .  S
O540       Zr559   2.376       .  S
O540      Zr2257   2.413       .  S
Zr541       O547   2.405       .  S
Zr541       O548   2.395       .  S
Zr541       O549   2.363       .  S
Zr541       O550   2.401       .  S
Zr541       O566   2.439       .  S
Zr541       O560   2.403       .  S
Zr541       O568   2.395       .  S
Zr541       O556   2.454       .  S
Zr542       O548   2.386       .  S
Zr542       O549   2.380       .  S
Zr542      O2265   2.400       .  S
Zr542       O561   2.446       .  S
Zr542       O554   2.436       .  S
Zr542       O555   2.424       .  S
Zr542      O2262   2.400       .  S
Zr543       O547   2.412       .  S
Zr543       O550   2.373       .  S
Zr543       O545   2.433       .  S
Zr543       O567   2.435       .  S
Zr543       O569   2.562       .  S
Zr544       O547   2.398       .  S
Zr544       O548   2.413       .  S
Zr544      O2265   2.390       .  S
Zr544       O570   2.436       .  S
Zr544       O571   2.437       .  S
Zr544       O546   2.439       .  S
Zr544      O2264   2.428       .  S
O545        H582   0.990       .  S
O546        H577   0.990       .  S
O546       H2319   0.990       .  S
O548        H574   0.966       .  S
O549       Zr559   2.364       .  S
O550       Zr559   2.378       .  S
O550        H575   0.965       .  S
C551        C799   1.439       .  S
C552       O2261   1.311   1_455  A
C552        C805   1.477       .  S
C553        C801   1.424       .  S
O554       H2318   0.988       .  S
O555        C557   1.279       .  A
O556        C557   1.287       .  A
C557        C834   1.441       .  S
O558       Zr559   2.439       .  S
O558        H587   0.990       .  S
Zr559       O562   2.438       .  S
Zr559       O563   2.438       .  S
Zr559       O564   2.417       .  S
O560        C565   1.277       .  A
O561        H578   0.989       .  S
O561       H2321   0.991       .  S
O562        H579   0.990       .  S
O563        H583   0.990       .  S
O563        H592   0.990       .  S
O564        C565   1.280       .  A
C565        C804   1.410       .  S
O566        H585   0.990       .  S
O566        H589   0.990       .  S
O567        H581   0.990       .  S
O567        H588   0.990       .  S
O568        C572   1.276       .  A
O569        C572   1.312       .  A
O570        H580   0.990       .  S
O571        H584   0.990       .  S
C572        C808   1.480       .  S
H576       O2267   0.964       .  S
H590       O2282   0.988       .  S
H591       O2274   0.990       .  S
H593       O2289   0.991       .  S
Zr595      O1467   2.377       .  S
Zr595      O1468   2.397       .  S
Zr595      O1469   2.409       .  S
Zr595      O1470   2.416       .  S
Zr595       O596   2.448       .  S
Zr595       O597   2.447       .  S
Zr595       O598   2.448       .  S
Zr595       O601   2.379       .  S
O596        H652   0.991       .  S
O596        H660   0.991       .  S
O597        C617   1.285       .  A
O598        C619   1.281       .  A
O599       Zr609   2.575       .  S
O599       C1482   1.310   1_545  A
O600      Zr1472   2.400       .  S
O600        C619   1.274       .  A
O601        C618   1.265       .  A
O602      Zr1474   2.427       .  S
O602        C617   1.281       .  A
O603       Zr608   2.400       .  S
O603       Zr610   2.391   1_565  S
O603      Zr1459   2.377       .  S
O604       Zr609   2.387       .  S
O604       Zr610   2.384       .  S
O604      Zr1459   2.396   1_545  S
O604        H639   0.964       .  S
O605       Zr608   2.408       .  S
O605       Zr625   2.392   1_565  S
O605      Zr1459   2.408       .  S
O605       H1506   0.964       .  S
O606       Zr609   2.389       .  S
O606       Zr625   2.373       .  S
O606      Zr1459   2.416   1_545  S
Zr607       O613   2.406       .  S
Zr607       O614   2.394       .  S
Zr607       O615   2.360       .  S
Zr607       O616   2.403       .  S
Zr607       O632   2.438       .  S
Zr607       O626   2.400       .  S
Zr607       O634   2.398       .  S
Zr607       O622   2.461       .  S
Zr608       O614   2.385   1_565  S
Zr608       O615   2.380   1_565  S
Zr608       O627   2.447       .  S
Zr608       O620   2.436       .  S
Zr608       O621   2.421   1_565  S
Zr608      O1464   2.397       .  S
Zr609       O613   2.411       .  S
Zr609       O616   2.376       .  S
Zr609       O611   2.434       .  S
Zr609       O633   2.437       .  S
Zr609       O635   2.564       .  S
Zr610       O613   2.398       .  S
Zr610       O614   2.415       .  S
Zr610       O636   2.436       .  S
Zr610       O637   2.437       .  S
Zr610       O612   2.439   1_545  S
Zr610      O1466   2.429   1_545  S
O611        H648   0.990       .  S
O612        H643   0.990       .  S
O612       H1521   0.990       .  S
O614        H640   0.966       .  S
O615       Zr625   2.365       .  S
O616       Zr625   2.377       .  S
O616        H641   0.965       .  S
C617        C831   1.439       .  S
C618       O1463   1.311       .  A
C618        C843   1.477       .  S
C619        C802   1.424       .  S
O620       H1520   0.988       .  S
O621        C623   1.278       .  A
O622        C623   1.288       .  A
C623        C797   1.443       .  S
O624       Zr625   2.439       .  S
O624        H653   0.990       .  S
Zr625       O628   2.434       .  S
Zr625       O629   2.439       .  S
Zr625       O630   2.420       .  S
O626        C631   1.277       .  A
O627        H644   0.990       .  S
O627        H659   0.991       .  S
O628        H645   0.990       .  S
O629        H649   0.990       .  S
O629        H658   0.990       .  S
O630        C631   1.281       .  A
C631        C803   1.411       .  S
O632        H651   0.990       .  S
O632        H655   0.990       .  S
O633        H647   0.990       .  S
O633        H654   0.990       .  S
O634        C638   1.277       .  A
O635        C638   1.312       .  A
O636        H646   0.990       .  S
O637        H650   0.990       .  S
C638        C842   1.481       .  S
H642       O1469   0.964       .  S
H656       O1484   0.988       .  S
H657       O1476   0.990       .  S
Zr661      O1533   2.377       .  S
Zr661      O1534   2.396   1_545  S
Zr661      O1535   2.412   1_545  S
Zr661      O1536   2.415   1_545  S
Zr661       O662   2.447       .  S
Zr661       O663   2.456       .  S
Zr661       O664   2.444       .  S
Zr661       O667   2.380       .  S
O662        H718   0.990       .  S
O662        H726   0.991       .  S
O663        C683   1.287       .  A
O664        C685   1.281       .  A
O665       Zr675   2.580       .  S
O665        C684   1.311       .  A
O666      Zr1538   2.400   1_545  S
O666        C685   1.275       .  A
O667       C1548   1.265   1_545  A
O668      Zr1540   2.430   1_545  S
O668        C683   1.282       .  A
O669       Zr674   2.397       .  S
O669       Zr676   2.389       .  S
O669      Zr1525   2.376       .  S
O670       Zr675   2.389       .  S
O670       Zr676   2.388       .  S
O670      Zr1525   2.398       .  S
O670        H705   0.964       .  S
O671       Zr674   2.409       .  S
O671       Zr691   2.392       .  S
O671      Zr1525   2.412       .  S
O671        H708   0.964       .  S
O672       Zr675   2.387       .  S
O672       Zr691   2.373       .  S
O672      Zr1525   2.417       .  S
Zr673       O679   2.409       .  S
Zr673       O680   2.396       .  S
Zr673       O681   2.361       .  S
Zr673       O682   2.401       .  S
Zr673       O698   2.441       .  S
Zr673       O692   2.406       .  S
Zr673       O700   2.398       .  S
Zr673       O688   2.460       .  S
Zr674       O680   2.383       .  S
Zr674       O681   2.379       .  S
Zr674       O693   2.444       .  S
Zr674       O686   2.436       .  S
Zr674       O687   2.424       .  S
Zr674      O1530   2.399       .  S
Zr675       O679   2.410       .  S
Zr675       O682   2.376       .  S
Zr675       O677   2.433       .  S
Zr675       O699   2.436       .  S
Zr675       O701   2.567       .  S
Zr676       O679   2.398       .  S
Zr676       O680   2.414       .  S
Zr676       O702   2.436       .  S
Zr676       O703   2.434       .  S
Zr676       O678   2.439       .  S
Zr676      O1532   2.427       .  S
O677        H714   0.990       .  S
O678        H709   0.990       .  S
O678        H723   0.990       .  S
O680        H706   0.966       .  S
O681       Zr691   2.365       .  S
O682       Zr691   2.377       .  S
O682        H707   0.965       .  S
C683        C816   1.443       .  S
C684       O1531   1.265       .  A
C684       C1677   1.476       .  S
C685        C794   1.423       .  S
O686        H722   0.988       .  S
O687        C689   1.279       .  A
O688        C689   1.288       .  A
C689        C800   1.442       .  S
O690       Zr691   2.439       .  S
O690        H719   0.990       .  S
Zr691       O694   2.437       .  S
Zr691       O695   2.439       .  S
Zr691       O696   2.416       .  S
O692        C697   1.278       .  A
O693        H710   0.989       .  S
O693        H725   0.991       .  S
O694        H711   0.990       .  S
O695        H715   0.990       .  S
O695        H724   0.990       .  S
O696        C697   1.279       .  A
C697        C796   1.411       .  S
O698        H717   0.990       .  S
O698        H721   0.990       .  S
O699        H713   0.990       .  S
O699        H720   0.990       .  S
O700        C704   1.278       .  A
O701        C704   1.313       .  A
O702        H712   0.990       .  S
O703        H716   0.990       .  S
C704        C812   1.481       .  S
Zr727       O735   2.378       .  S
Zr727       O736   2.394       .  S
Zr727       O737   2.410       .  S
Zr727       O738   2.417       .  S
Zr727       O728   2.448       .  S
Zr727       O729   2.452       .  S
Zr727       O730   2.448       .  S
Zr727       O733   2.377       .  S
O728        H784   0.991       .  S
O728        H792   0.991       .  S
O729        C749   1.286       .  A
O730        C751   1.281       .  A
O731       Zr741   2.576       .  S
O731        C750   1.311       .  A
O732       Zr740   2.397       .  S
O732        C751   1.273       .  A
O733        C750   1.265       .  A
O734       Zr742   2.425       .  S
O734        C749   1.281       .  A
O735       Zr740   2.402       .  S
O735       Zr742   2.391       .  S
O736       Zr741   2.388       .  S
O736       Zr742   2.387       .  S
O736        H771   0.964       .  S
O737       Zr740   2.407       .  S
O737       Zr757   2.391       .  S
O737        H774   0.964       .  S
O738       Zr741   2.390       .  S
O738       Zr757   2.377       .  S
Zr739       O745   2.406       .  S
Zr739       O746   2.393       .  S
Zr739       O747   2.359       .  S
Zr739       O748   2.401       .  S
Zr739       O764   2.438       .  S
Zr739       O758   2.401       .  S
Zr739       O766   2.395       .  S
Zr739       O754   2.459       .  S
Zr740       O746   2.383       .  S
Zr740       O747   2.377       .  S
Zr740       O759   2.446       .  S
Zr740       O752   2.435       .  S
Zr740       O753   2.422       .  S
Zr741       O745   2.411       .  S
Zr741       O748   2.375       .  S
Zr741       O743   2.433       .  S
Zr741       O765   2.437       .  S
Zr741       O767   2.567       .  S
Zr742       O745   2.398       .  S
Zr742       O746   2.415       .  S
Zr742       O768   2.434       .  S
Zr742       O769   2.439       .  S
Zr742       O744   2.440       .  S
O743        H780   0.990       .  S
O744        H775   0.990       .  S
O744        H789   0.990       .  S
O746        H772   0.965       .  S
O747       Zr757   2.362       .  S
O748       Zr757   2.377       .  S
O748        H773   0.965       .  S
C749        C798   1.441       .  S
C750        C807   1.475       .  S
C751        C793   1.423       .  S
O752        H788   0.988       .  S
O753        C755   1.279       .  A
O754        C755   1.288       .  A
C755        C810   1.443       .  S
O756       Zr757   2.439       .  S
O756        H785   0.990       .  S
Zr757       O760   2.436       .  S
Zr757       O761   2.439       .  S
Zr757       O762   2.420       .  S
O758        C763   1.277       .  A
O759        H776   0.990       .  S
O759        H791   0.991       .  S
O760        H777   0.990       .  S
O761        H781   0.990       .  S
O761        H790   0.990       .  S
O762        C763   1.281       .  A
C763        C795   1.411       .  S
O764        H783   0.990       .  S
O764        H787   0.990       .  S
O765        H779   0.990       .  S
O765        H786   0.990       .  S
O766        C770   1.277       .  A
O767        C770   1.313       .  A
O768        H778   0.990       .  S
O769        H782   0.990       .  S
C770        C806   1.481       .  S
C793        C794   1.199       .  T
C795        C796   1.192       .  T
C797        C798   1.210       .  T
C799        C800   1.210       .  T
C801        C802   1.199       .  T
C803        C804   1.192       .  T
C805        C806   1.235       .  T
C807        C808   1.234       .  T
C809        C810   1.210       .  T
C811        C812   1.235       .  T
C813       C1548   1.479   1_545  S
C813        C814   1.236       .  T
C815        C816   1.211       .  T
C817        C818   1.201       .  T
C819        C820   1.193       .  T
C821        C822   1.199       .  T
C823        C824   1.191       .  T
C825        C826   1.210       .  T
C827       C1950   1.476       .  S
C827        C828   1.234       .  T
C829        C830   1.234       .  T
C831        C832   1.209       .  T
C833        C834   1.210       .  T
C835        C836   1.211       .  T
C837        C838   1.199       .  T
C839        C840   1.191       .  T
C841        C842   1.235       .  T
C843        C844   1.235       .  T
C845        C846   1.209       .  T
C847        C954   1.477   1_545  S
C847        C848   1.235       .  T
C849        C850   1.236       .  T
C851        C852   1.209       .  T
C853        C854   1.210       .  T
C855        C856   1.212       .  T
C857        C858   1.201       .  T
C859        C860   1.192       .  T
C861       C1752   1.476       .  S
C861        C862   1.235       .  T
C863        C864   1.234       .  T
Zr865       O873   2.378       .  S
Zr865       O874   2.397   1_656  S
Zr865       O875   2.409   1_655  S
Zr865       O876   2.420   1_655  S
Zr865      O2594   2.446       .  S
Zr865      O2595   2.452   1_556  S
Zr865      O2596   2.451       .  S
Zr865      O2599   2.379   1_556  S
O866      Zr2593   2.446       .  S
O866        H922   0.990       .  S
O866        H930   0.991       .  S
O867      Zr2593   2.451   1_554  S
O867        C887   1.286       .  A
O868      Zr2593   2.453       .  S
O868        C889   1.283       .  A
O869       Zr879   2.575       .  S
O869        C888   1.310       .  A
O870      Zr2606   2.397       .  S
O870        C889   1.273       .  A
O871      Zr2593   2.380   1_554  S
O871       C2616   1.266       .  A
O872       Zr880   2.425   1_654  S
O872       C2615   1.280       .  A
O873       Zr878   2.400   1_655  S
O873       Zr880   2.391   1_655  S
O874       Zr879   2.387       .  S
O874       Zr880   2.385   1_554  S
O874        H909   0.964       .  S
O875       Zr878   2.409       .  S
O875       Zr895   2.392       .  S
O875        H912   0.964   1_455  S
O876       Zr879   2.393   1_556  S
O876       Zr895   2.379       .  S
Zr877       O883   2.407       .  S
Zr877       O884   2.396       .  S
Zr877       O885   2.361       .  S
Zr877       O886   2.401       .  S
Zr877       O902   2.439       .  S
Zr877       O896   2.402       .  S
Zr877       O904   2.398       .  S
Zr877       O892   2.460       .  S
Zr878       O884   2.386       .  S
Zr878       O885   2.379       .  S
Zr878       O897   2.446   1_455  S
Zr878       O890   2.437   1_455  S
Zr878      O2598   2.397   1_455  S
Zr878       O891   2.426       .  S
Zr879       O883   2.412   1_554  S
Zr879       O886   2.377   1_554  S
Zr879       O881   2.435       .  S
Zr879       O903   2.436       .  S
Zr879       O905   2.563       .  S
Zr880       O883   2.396       .  S
Zr880       O884   2.414       .  S
Zr880       O906   2.435   1_556  S
Zr880       O907   2.436       .  S
Zr880       O882   2.438   1_455  S
O881        H918   0.990       .  S
O882        H913   0.991       .  S
O882        H927   0.990       .  S
O884        H910   0.966       .  S
O885       Zr895   2.362       .  S
O886       Zr895   2.377       .  S
O886        H911   0.965       .  S
C887       O2600   1.282       .  A
C887       C1718   1.439       .  S
C888       O2599   1.265   1_455  A
C888       C3453   1.478   1_455  S
C889       C1721   1.426       .  S
O890        H926   0.988       .  S
O891        C893   1.279       .  A
O892        C893   1.288       .  A
C893       C1720   1.443       .  S
O894       Zr895   2.439       .  S
O894        H923   0.990       .  S
Zr895       O898   2.438       .  S
Zr895       O899   2.439       .  S
Zr895       O900   2.418       .  S
O896        C901   1.277       .  A
O897        H914   0.990       .  S
O897        H929   0.991       .  S
O898        H915   0.990       .  S
O899        H919   0.990       .  S
O899        H928   0.990       .  S
O900        C901   1.280       .  A
C901       C1723   1.410       .  S
O902        H921   0.990       .  S
O902        H925   0.990       .  S
O903        H917   0.990       .  S
O903        H924   0.990       .  S
O904        C908   1.277       .  A
O905        C908   1.312   1_554  A
O906        H916   0.990       .  S
O907        H920   0.990       .  S
C908       C1728   1.480   1_556  S
Zr931       O932   2.445       .  S
Zr931       O933   2.452       .  S
Zr931       O934   2.450       .  S
Zr931       O937   2.378       .  S
O932        H988   0.990       .  S
O932        H996   0.990       .  S
O933        C953   1.286       .  A
O934        C955   1.283       .  A
O935       Zr945   2.576       .  S
O935        C954   1.311       .  A
O936        C955   1.274       .  A
O938        C953   1.282       .  A
O939       Zr944   2.401   1_545  S
O939       Zr946   2.390   1_545  S
O940       Zr945   2.386       .  S
O940       Zr946   2.386       .  S
O940        H975   0.964       .  S
O941       Zr944   2.411       .  S
O941       Zr961   2.390       .  S
O941        H978   0.964   1_565  S
O942       Zr945   2.392       .  S
O942       Zr961   2.377       .  S
Zr943       O949   2.407       .  S
Zr943       O950   2.396       .  S
Zr943       O951   2.360       .  S
Zr943       O952   2.403       .  S
Zr943       O968   2.440       .  S
Zr943       O962   2.403       .  S
Zr943       O970   2.402       .  S
Zr943       O958   2.463       .  S
Zr944       O950   2.387       .  S
Zr944       O951   2.379       .  S
Zr944       O963   2.446   1_565  S
Zr944       O956   2.437   1_565  S
Zr944       O957   2.426       .  S
Zr945       O949   2.411       .  S
Zr945       O952   2.377       .  S
Zr945       O947   2.434       .  S
Zr945       O969   2.437       .  S
Zr945       O971   2.563       .  S
Zr946       O949   2.398       .  S
Zr946       O950   2.415       .  S
Zr946       O972   2.436       .  S
Zr946       O973   2.436       .  S
Zr946       O948   2.439   1_565  S
O947        H984   0.990       .  S
O948        H979   0.990       .  S
O948        H993   0.990       .  S
O950        H976   0.966       .  S
O951       Zr961   2.362       .  S
O952       Zr961   2.380       .  S
O952        H977   0.965       .  S
C953       C1709   1.441       .  S
C955       C1722   1.426       .  S
O957        C959   1.279       .  A
O958        C959   1.288       .  A
C959       C1716   1.443       .  S
O960       Zr961   2.438       .  S
O960        H989   0.990       .  S
Zr961       O964   2.437       .  S
Zr961       O965   2.437       .  S
Zr961       O966   2.418       .  S
O962        C967   1.277       .  A
O963        H980   0.990       .  S
O963        H995   0.991       .  S
O964        H981   0.990       .  S
O965        H985   0.990       .  S
O965        H994   0.990       .  S
O966        C967   1.280       .  A
C967       C1724   1.410       .  S
O968        H987   0.990       .  S
O968        H991   0.990       .  S
O969        H983   0.990       .  S
O969        H990   0.990       .  S
O970        C974   1.278       .  A
O971        C974   1.312       .  A
O972        H982   0.990       .  S
O973        H986   0.990       .  S
C974       C1714   1.482       .  S
Zr997      O1005   2.377       .  S
Zr997      O1006   2.394       .  S
Zr997      O1007   2.413       .  S
Zr997      O1008   2.416       .  S
Zr997       O998   2.446       .  S
Zr997       O999   2.453       .  S
Zr997      O1000   2.448       .  S
Zr997      O1003   2.383       .  S
O998       H1054   0.990       .  S
O998       H1062   0.990       .  S
O999       C1019   1.286       .  A
O1000      C1021   1.282       .  A
O1001     Zr1011   2.570       .  S
O1001      C1020   1.309       .  A
O1002     Zr1010   2.396       .  S
O1002      C1021   1.273       .  A
O1003      C1020   1.265       .  A
O1004     Zr1012   2.426       .  S
O1004      C1019   1.281       .  A
O1005     Zr1010   2.403       .  S
O1005     Zr1012   2.389       .  S
O1006     Zr1011   2.388       .  S
O1006     Zr1012   2.385       .  S
O1006      H1041   0.964       .  S
O1007     Zr1010   2.410       .  S
O1007     Zr1027   2.391       .  S
O1007      H1044   0.965       .  S
O1008     Zr1011   2.390       .  S
O1008     Zr1027   2.375       .  S
Zr1009     O1015   2.406       .  S
Zr1009     O1016   2.391       .  S
Zr1009     O1017   2.364       .  S
Zr1009     O1018   2.403       .  S
Zr1009     O1034   2.440       .  S
Zr1009     O1028   2.396       .  S
Zr1009     O1036   2.398       .  S
Zr1009     O1024   2.461       .  S
Zr1010     O1016   2.384       .  S
Zr1010     O1017   2.377       .  S
Zr1010     O1029   2.445       .  S
Zr1010     O1022   2.436       .  S
Zr1010     O1023   2.430       .  S
Zr1011     O1015   2.412       .  S
Zr1011     O1018   2.374       .  S
Zr1011     O1013   2.433       .  S
Zr1011     O1035   2.437       .  S
Zr1011     O1037   2.558       .  S
Zr1012     O1015   2.397       .  S
Zr1012     O1016   2.413       .  S
Zr1012     O1038   2.435       .  S
Zr1012     O1039   2.437       .  S
Zr1012     O1014   2.438       .  S
O1013      H1050   0.990       .  S
O1014      H1045   0.990       .  S
O1014      H1059   0.990       .  S
O1016      H1042   0.966       .  S
O1017     Zr1027   2.366       .  S
O1018     Zr1027   2.377       .  S
O1018      H1043   0.965       .  S
C1019      C1697   1.441       .  S
C1020      C1705   1.476       .  S
C1021      C1701   1.423       .  S
O1022      H1058   0.988       .  S
O1023      C1025   1.280       .  A
O1024      C1025   1.288       .  A
C1025      C1700   1.447       .  S
O1026     Zr1027   2.440       .  S
O1026      H1055   0.990       .  S
Zr1027     O1030   2.437       .  S
Zr1027     O1031   2.439       .  S
Zr1027     O1032   2.420       .  S
O1028      C1033   1.276       .  A
O1029      H1046   0.989       .  S
O1029      H1061   0.991       .  S
O1030      H1047   0.990       .  S
O1031      H1051   0.990       .  S
O1031      H1060   0.990       .  S
O1032      C1033   1.280       .  A
C1033      C1703   1.409       .  S
O1034      H1053   0.990       .  S
O1034      H1057   0.990       .  S
O1035      H1049   0.990       .  S
O1035      H1056   0.990       .  S
O1036      C1040   1.277       .  A
O1037      C1040   1.311       .  A
O1038      H1048   0.990       .  S
O1039      H1052   0.990       .  S
C1040      C1708   1.479       .  S
Zr1063     O1071   2.376       .  S
Zr1063     O1072   2.397   1_655  S
Zr1063     O1073   2.409   1_655  S
Zr1063     O1074   2.415   1_655  S
Zr1063     O2792   2.446       .  S
Zr1063     O2793   2.451       .  S
Zr1063     O2794   2.450       .  S
Zr1063     O2797   2.381       .  S
O1064     Zr2791   2.446       .  S
O1064      H1120   0.990       .  S
O1064      H1128   0.991       .  S
O1065     Zr2791   2.454       .  S
O1065      C1085   1.287       .  A
O1066     Zr2791   2.450       .  S
O1066      C1087   1.283       .  A
O1067     Zr1077   2.573       .  S
O1067      C1086   1.310       .  A
O1068     Zr2804   2.398       .  S
O1068      C1087   1.274       .  A
O1069     Zr2791   2.376       .  S
O1069      C2814   1.265       .  A
O1070     Zr1078   2.426   1_655  S
O1070      C2813   1.281       .  A
O1071     Zr1076   2.398   1_655  S
O1071     Zr1078   2.388   1_655  S
O1072     Zr1077   2.391       .  S
O1072     Zr1078   2.385       .  S
O1072      H1107   0.964       .  S
O1073     Zr1076   2.410       .  S
O1073     Zr1093   2.390       .  S
O1073      H1110   0.964   1_455  S
O1074     Zr1077   2.389       .  S
O1074     Zr1093   2.374       .  S
Zr1075     O1081   2.407       .  S
Zr1075     O1082   2.393       .  S
Zr1075     O1083   2.360       .  S
Zr1075     O1084   2.401       .  S
Zr1075     O1100   2.439       .  S
Zr1075     O1094   2.403       .  S
Zr1075     O1102   2.398       .  S
Zr1075     O1090   2.457       .  S
Zr1076     O1082   2.384       .  S
Zr1076     O1083   2.379       .  S
Zr1076     O1095   2.445   1_455  S
Zr1076     O1088   2.434   1_455  S
Zr1076     O2796   2.400   1_455  S
Zr1076     O1089   2.426       .  S
Zr1077     O1081   2.410       .  S
Zr1077     O1084   2.377       .  S
Zr1077     O1079   2.433       .  S
Zr1077     O1101   2.437       .  S
Zr1077     O1103   2.561       .  S
Zr1078     O1081   2.399       .  S
Zr1078     O1082   2.413       .  S
Zr1078     O1104   2.435       .  S
Zr1078     O1105   2.435       .  S
Zr1078     O1080   2.439   1_455  S
O1079      H1116   0.990       .  S
O1080      H1111   0.990       .  S
O1080      H1125   0.990       .  S
O1082      H1108   0.966       .  S
O1083     Zr1093   2.362       .  S
O1084     Zr1093   2.379       .  S
O1084      H1109   0.965       .  S
C1085      O2798   1.281       .  A
C1085      C1690   1.441       .  S
C1086      O2797   1.265   1_455  A
C1086      C3419   1.476   1_455  S
C1087      C1702   1.424       .  S
O1088      H1124   0.988       .  S
O1089      C1091   1.280       .  A
O1090      C1091   1.288       .  A
C1091      C1696   1.442       .  S
O1092     Zr1093   2.438       .  S
O1092      H1121   0.990       .  S
Zr1093     O1096   2.436       .  S
Zr1093     O1097   2.439       .  S
Zr1093     O1098   2.414       .  S
O1094      C1099   1.277       .  A
O1095      H1112   0.989       .  S
O1095      H1127   0.991       .  S
O1096      H1113   0.990       .  S
O1097      H1117   0.990       .  S
O1097      H1126   0.990       .  S
O1098      C1099   1.279       .  A
C1099      C1704   1.409       .  S
O1100      H1119   0.990       .  S
O1100      H1123   0.990       .  S
O1101      H1115   0.990       .  S
O1101      H1122   0.990       .  S
O1102      C1106   1.277       .  A
O1103      C1106   1.312       .  A
O1104      H1114   0.990       .  S
O1105      H1118   0.990       .  S
C1106      C1693   1.480       .  S
Zr1129     O1130   2.447       .  S
Zr1129     O1131   2.456       .  S
Zr1129     O1132   2.443       .  S
Zr1129     O1135   2.374       .  S
O1130      H1186   0.990       .  S
O1130      H1194   0.991       .  S
O1131      C1151   1.287       .  A
O1132      C1153   1.281       .  A
O1133     Zr1143   2.576       .  S
O1134      C1153   1.274       .  A
O1135      C1152   1.265       .  A
O1136      C1151   1.282       .  A
O1137     Zr1142   2.398       .  S
O1137     Zr1144   2.388       .  S
O1138     Zr1143   2.386       .  S
O1138     Zr1144   2.390       .  S
O1138      H1173   0.964       .  S
O1139     Zr1142   2.405       .  S
O1139     Zr1159   2.392       .  S
O1140     Zr1143   2.386       .  S
O1140     Zr1159   2.375       .  S
Zr1141     O1147   2.405       .  S
Zr1141     O1148   2.389       .  S
Zr1141     O1149   2.361       .  S
Zr1141     O1150   2.399       .  S
Zr1141     O1166   2.439       .  S
Zr1141     O1160   2.397       .  S
Zr1141     O1168   2.394       .  S
Zr1141     O1156   2.455       .  S
Zr1142     O1148   2.383       .  S
Zr1142     O1149   2.378       .  S
Zr1142     O1161   2.445       .  S
Zr1142     O1154   2.435       .  S
Zr1142     O1155   2.422       .  S
Zr1143     O1147   2.413       .  S
Zr1143     O1150   2.376       .  S
Zr1143     O1145   2.434       .  S
Zr1143     O1167   2.437       .  S
Zr1143     O1169   2.558       .  S
Zr1144     O1147   2.400       .  S
Zr1144     O1148   2.415       .  S
Zr1144     O1170   2.435       .  S
Zr1144     O1171   2.441       .  S
Zr1144     O1146   2.440       .  S
O1145      H1182   0.990       .  S
O1146      H1177   0.990       .  S
O1148      H1174   0.965       .  S
O1149     Zr1159   2.363       .  S
O1150     Zr1159   2.377       .  S
O1150      H1175   0.965       .  S
C1151      C1699   1.445       .  S
C1152      C1694   1.476       .  S
C1153      C1685   1.423       .  S
O1155      C1157   1.279       .  A
O1156      C1157   1.287       .  A
C1157      C1717   1.440       .  S
O1158     Zr1159   2.439       .  S
O1158      H1187   0.990       .  S
Zr1159     O1162   2.436       .  S
Zr1159     O1163   2.440       .  S
Zr1159     O1164   2.420       .  S
O1160      C1165   1.276       .  A
O1161      H1178   0.989       .  S
O1161      H1193   0.991       .  S
O1162      H1179   0.990       .  S
O1163      H1183   0.990       .  S
O1163      H1192   0.990       .  S
O1164      C1165   1.280       .  A
C1165      C1688   1.409       .  S
O1166      H1185   0.990       .  S
O1166      H1189   0.990       .  S
O1167      H1181   0.990       .  S
O1167      H1188   0.990       .  S
O1168      C1172   1.276       .  A
O1169      C1172   1.311       .  A
O1170      H1180   0.990       .  S
O1171      H1184   0.990       .  S
C1172      C1692   1.476       .  S
Zr1195     O1203   2.375       .  S
Zr1195     O1204   2.395       .  S
Zr1195     O1205   2.411       .  S
Zr1195     O1206   2.416       .  S
Zr1195     O1196   2.447       .  S
Zr1195     O1197   2.455       .  S
Zr1195     O1198   2.448       .  S
Zr1195     O1201   2.380       .  S
O1196      H1252   0.990       .  S
O1196      H1260   0.991       .  S
O1197      C1217   1.287       .  A
O1198      C1219   1.282       .  A
O1199     Zr1209   2.574       .  S
O1199      C1218   1.310       .  A
O1200     Zr1208   2.396       .  S
O1200      C1219   1.274       .  A
O1201      C1218   1.265       .  A
O1202     Zr1210   2.428       .  S
O1202      C1217   1.282       .  A
O1203     Zr1208   2.398       .  S
O1203     Zr1210   2.387       .  S
O1204     Zr1209   2.388       .  S
O1204     Zr1210   2.388       .  S
O1204      H1239   0.964       .  S
O1205     Zr1208   2.407       .  S
O1205     Zr1225   2.390       .  S
O1205      H1242   0.964       .  S
O1206     Zr1209   2.388       .  S
O1206     Zr1225   2.375       .  S
Zr1207     O1213   2.405       .  S
Zr1207     O1214   2.392       .  S
Zr1207     O1215   2.361       .  S
Zr1207     O1216   2.402       .  S
Zr1207     O1232   2.440       .  S
Zr1207     O1226   2.399       .  S
Zr1207     O1234   2.397       .  S
Zr1207     O1222   2.460       .  S
Zr1208     O1214   2.385       .  S
Zr1208     O1215   2.378       .  S
Zr1208     O1227   2.445       .  S
Zr1208     O1220   2.433       .  S
Zr1208     O1221   2.419       .  S
Zr1209     O1213   2.412       .  S
Zr1209     O1216   2.375       .  S
Zr1209     O1211   2.433       .  S
Zr1209     O1233   2.435   1_554  S
Zr1209     O1235   2.565       .  S
Zr1210     O1213   2.398       .  S
Zr1210     O1214   2.413       .  S
Zr1210     O1236   2.434       .  S
Zr1210     O1237   2.435       .  S
Zr1210     O1212   2.439       .  S
O1211      H1248   0.990       .  S
O1212      H1243   0.990       .  S
O1212      H1257   0.990       .  S
O1214      H1240   0.966       .  S
O1215     Zr1225   2.363       .  S
O1216     Zr1225   2.378       .  S
O1216      H1241   0.965       .  S
C1217      C1715   1.442   1_554  S
C1218      C1727   1.476       .  S
C1219      C1686   1.422       .  S
O1220      H1256   0.988       .  S
O1221      C1223   1.278       .  A
O1222      C1223   1.288       .  A
C1223      C1689   1.442       .  S
O1224     Zr1225   2.439       .  S
O1224      H1253   0.990       .  S
Zr1225     O1228   2.435       .  S
Zr1225     O1229   2.439       .  S
Zr1225     O1230   2.417       .  S
O1226      C1231   1.276       .  A
O1227      H1244   0.989       .  S
O1227      H1259   0.991       .  S
O1228      H1245   0.990       .  S
O1229      H1249   0.990       .  S
O1229      H1258   0.990       .  S
O1230      C1231   1.280       .  A
C1231      C1687   1.409       .  S
O1232      H1251   0.990       .  S
O1232      H1255   0.990       .  S
O1233      H1247   0.990       .  S
O1233      H1254   0.990       .  S
O1234      C1238   1.277       .  A
O1235      C1238   1.312       .  A
O1236      H1246   0.990   1_554  S
O1237      H1250   0.990       .  S
C1238      C1726   1.480       .  S
Zr1261     O1269   2.378       .  S
Zr1261     O1270   2.396       .  S
Zr1261     O1271   2.412       .  S
Zr1261     O1272   2.419       .  S
Zr1261     O1262   2.447       .  S
Zr1261     O1263   2.455       .  S
Zr1261     O1264   2.451       .  S
Zr1261     O1267   2.382       .  S
O1262      H1318   0.990       .  S
O1262      H1326   0.991       .  S
O1263      C1283   1.287       .  A
O1264      C1285   1.283       .  A
O1265     Zr1275   2.573       .  S
O1265      C1284   1.310       .  A
O1266     Zr1274   2.397       .  S
O1266      C1285   1.273       .  A
O1267      C1284   1.266       .  A
O1268     Zr1276   2.428       .  S
O1268      C1283   1.281       .  A
O1269     Zr1274   2.400       .  S
O1269     Zr1276   2.389       .  S
O1270     Zr1275   2.388       .  S
O1270     Zr1276   2.385       .  S
O1270      H1305   0.964       .  S
O1271     Zr1274   2.408       .  S
O1271     Zr1291   2.393       .  S
O1271      H1308   0.964       .  S
O1272     Zr1275   2.392       .  S
O1272     Zr1291   2.378       .  S
Zr1273     O1279   2.406       .  S
Zr1273     O1280   2.396       .  S
Zr1273     O1281   2.361       .  S
Zr1273     O1282   2.404       .  S
Zr1273     O1298   2.441       .  S
Zr1273     O1292   2.399       .  S
Zr1273     O1300   2.402       .  S
Zr1273     O1288   2.460       .  S
Zr1274     O1280   2.385       .  S
Zr1274     O1281   2.376       .  S
Zr1274     O1293   2.446       .  S
Zr1274     O1286   2.436       .  S
Zr1274     O1287   2.423       .  S
Zr1275     O1279   2.412       .  S
Zr1275     O1282   2.378       .  S
Zr1275     O1277   2.433       .  S
Zr1275     O1299   2.434       .  S
Zr1275     O1301   2.564       .  S
Zr1276     O1279   2.397       .  S
Zr1276     O1280   2.414       .  S
Zr1276     O1302   2.436       .  S
Zr1276     O1303   2.436       .  S
Zr1276     O1278   2.438       .  S
O1277      H1314   0.990       .  S
O1278      H1309   0.990       .  S
O1278      H1323   0.990       .  S
O1280      H1306   0.966       .  S
O1281     Zr1291   2.363       .  S
O1282     Zr1291   2.378       .  S
O1282      H1307   0.965       .  S
C1283      C1719   1.442       .  S
C1284      C1713   1.478       .  S
C1285      C1682   1.425       .  S
O1286      H1322   0.988       .  S
O1287      C1289   1.279       .  A
O1288      C1289   1.288       .  A
C1289      C1679   1.443       .  S
O1290     Zr1291   2.440       .  S
O1290      H1319   0.990       .  S
Zr1291     O1294   2.437       .  S
Zr1291     O1295   2.441       .  S
Zr1291     O1296   2.420       .  S
O1292      C1297   1.277       .  A
O1293      H1310   0.989       .  S
O1293      H1325   0.991       .  S
O1294      H1311   0.990       .  S
O1295      H1315   0.990       .  S
O1295      H1324   0.990       .  S
O1296      C1297   1.280       .  A
C1297      C1683   1.411       .  S
O1298      H1317   0.990       .  S
O1298      H1321   0.990       .  S
O1299      H1313   0.990       .  S
O1299      H1320   0.990       .  S
O1300      C1304   1.278       .  A
O1301      C1304   1.312       .  A
O1302      H1312   0.990       .  S
O1303      H1316   0.990       .  S
C1304      C1712   1.482       .  S
Zr1327     O1335   2.374       .  S
Zr1327     O3064   2.397   1_455  S
Zr1327     O3065   2.408       .  S
Zr1327     O3066   2.416   1_455  S
Zr1327     O1328   2.445       .  S
Zr1327     O1329   2.455       .  S
Zr1327     O1330   2.451       .  S
Zr1327     O1333   2.376       .  S
O1328      H1384   0.990       .  S
O1328      H1392   0.991       .  S
O1329      C1349   1.287       .  A
O1330      C1351   1.283       .  A
O1331     Zr1341   2.576       .  S
O1331      C3078   1.311       .  A
O1332     Zr3068   2.395       .  S
O1332      C1351   1.273       .  A
O1333      C1350   1.266       .  A
O1334     Zr3070   2.430   1_455  S
O1334      C1349   1.282       .  A
O1335     Zr3068   2.396       .  S
O1335     Zr3070   2.388   1_455  S
O1336     Zr3055   2.395       .  S
O1336     Zr1341   2.386       .  S
O1336     Zr1342   2.389       .  S
O1336      H1371   0.964       .  S
O1337     Zr3055   2.409       .  S
O1337     Zr1340   2.409       .  S
O1337     Zr1357   2.392       .  S
O1337      H3102   0.964       .  S
O1338     Zr3055   2.414       .  S
O1338     Zr1341   2.389       .  S
O1338     Zr1357   2.375       .  S
Zr1339     O1345   2.405       .  S
Zr1339     O1346   2.393       .  S
Zr1339     O1347   2.361       .  S
Zr1339     O1348   2.401       .  S
Zr1339     O1364   2.440       .  S
Zr1339     O1358   2.402       .  S
Zr1339     O1366   2.399       .  S
Zr1339     O1354   2.461       .  S
Zr1340     O3063   2.398       .  S
Zr1340     O1346   2.382       .  S
Zr1340     O1347   2.378       .  S
Zr1340     O1359   2.444       .  S
Zr1340     O1352   2.434       .  S
Zr1340     O3060   2.395       .  S
Zr1340     O1353   2.425       .  S
Zr1341     O1345   2.408       .  S
Zr1341     O1348   2.373       .  S
Zr1341     O1343   2.433       .  S
Zr1341     O1365   2.435       .  S
Zr1341     O1367   2.562       .  S
Zr1342     O3063   2.389       .  S
Zr1342     O1345   2.397       .  S
Zr1342     O1346   2.416       .  S
Zr1342     O1368   2.435       .  S
Zr1342     O1369   2.440       .  S
Zr1342     O1344   2.440       .  S
Zr1342     O3062   2.430       .  S
O1343      H1380   0.990       .  S
O1344      H1375   0.990       .  S
O1344      H3117   0.990       .  S
O1346      H1372   0.965       .  S
O1347     Zr1357   2.363       .  S
O1348     Zr1357   2.378       .  S
O1348      H1373   0.965       .  S
C1349      C1673   1.442       .  S
C1350      O3059   1.311   1_455  A
C1350      C1675   1.474       .  S
C1351      C1681   1.424       .  S
O1352      H3116   0.989       .  S
O1353      C1355   1.279       .  A
O1354      C1355   1.289       .  A
C1355      C1710   1.443       .  S
O1356     Zr1357   2.439       .  S
O1356      H1385   0.991       .  S
Zr1357     O1360   2.436       .  S
Zr1357     O1361   2.438       .  S
Zr1357     O1362   2.421       .  S
O1358      C1363   1.278       .  A
O1359      H1376   0.989       .  S
O1359      H3119   0.991       .  S
O1360      H1377   0.990       .  S
O1361      H1381   0.990       .  S
O1361      H1390   0.990       .  S
O1362      C1363   1.281       .  A
C1363      C1684   1.411       .  S
O1364      H1383   0.991       .  S
O1364      H1387   0.990       .  S
O1365      H1379   0.990       .  S
O1365      H1386   0.990       .  S
O1366      C1370   1.278       .  A
O1367      C1370   1.312       .  A
O1368      H1378   0.990       .  S
O1369      H1382   0.990       .  S
C1370      C1678   1.480       .  S
H1374      O3065   0.964       .  S
H1388      O3080   0.988       .  S
H1389      O3072   0.990       .  S
H1391      O3087   0.991       .  S
Zr1393     O1401   2.377       .  S
Zr1393     O3130   2.394   1_455  S
Zr1393     O3131   2.413       .  S
Zr1393     O3132   2.418   1_455  S
Zr1393     O1394   2.448       .  S
Zr1393     O1395   2.453       .  S
Zr1393     O1396   2.446       .  S
Zr1393     O1399   2.381       .  S
O1394      H1450   0.990       .  S
O1394      H1458   0.991       .  S
O1395      C1415   1.286       .  A
O1396      C1417   1.281       .  A
O1397     Zr1407   2.571       .  S
O1397      C3144   1.310       .  A
O1398     Zr3134   2.401       .  S
O1398      C1417   1.274       .  A
O1399      C1416   1.265       .  A
O1400     Zr3136   2.423   1_455  S
O1400      C1415   1.280       .  A
O1401     Zr3134   2.402       .  S
O1401     Zr3136   2.390   1_455  S
O1402     Zr3121   2.395       .  S
O1402     Zr1407   2.390       .  S
O1402     Zr1408   2.387       .  S
O1402      H1437   0.964       .  S
O1403     Zr3121   2.412       .  S
O1403     Zr1406   2.410       .  S
O1403     Zr1423   2.391       .  S
O1403      H3168   0.964       .  S
O1404     Zr3121   2.415       .  S
O1404     Zr1407   2.392       .  S
O1404     Zr1423   2.376       .  S
Zr1405     O1411   2.403       .  S
Zr1405     O1412   2.394       .  S
Zr1405     O1413   2.361       .  S
Zr1405     O1414   2.402       .  S
Zr1405     O1430   2.438       .  S
Zr1405     O1424   2.398       .  S
Zr1405     O1432   2.395       .  S
Zr1405     O1420   2.455       .  S
Zr1406     O3129   2.400       .  S
Zr1406     O1412   2.386       .  S
Zr1406     O1413   2.379       .  S
Zr1406     O1425   2.448       .  S
Zr1406     O1418   2.435       .  S
Zr1406     O3126   2.396       .  S
Zr1406     O1419   2.424       .  S
Zr1407     O1411   2.409       .  S
Zr1407     O1414   2.378       .  S
Zr1407     O1409   2.434       .  S
Zr1407     O1431   2.436       .  S
Zr1407     O1433   2.564       .  S
Zr1408     O3129   2.391       .  S
Zr1408     O1411   2.396       .  S
Zr1408     O1412   2.412       .  S
Zr1408     O1434   2.435       .  S
Zr1408     O1435   2.436       .  S
Zr1408     O1410   2.440       .  S
Zr1408     O3128   2.426       .  S
O1409      H1446   0.990       .  S
O1410      H1441   0.990       .  S
O1410      H3183   0.990       .  S
O1412      H1438   0.966       .  S
O1413     Zr1423   2.365       .  S
O1414     Zr1423   2.379       .  S
O1414      H1439   0.965       .  S
C1415      C1663   1.439       .  S
C1416      O3125   1.311   1_455  A
C1416      C1669   1.479       .  S
C1417      C1665   1.424       .  S
O1418      H3182   0.988       .  S
O1419      C1421   1.279       .  A
O1420      C1421   1.287       .  A
C1421      C1698   1.442       .  S
O1422     Zr1423   2.439       .  S
O1422      H1451   0.991       .  S
Zr1423     O1426   2.437       .  S
Zr1423     O1427   2.439       .  S
Zr1423     O1428   2.416       .  S
O1424      C1429   1.276       .  A
O1425      H1442   0.990       .  S
O1425      H3185   0.991       .  S
O1426      H1443   0.990       .  S
O1427      H1447   0.990       .  S
O1427      H1456   0.990       .  S
O1428      C1429   1.280       .  A
C1429      C1668   1.409       .  S
O1430      H1449   0.990       .  S
O1430      H1453   0.990       .  S
O1431      H1445   0.990       .  S
O1431      H1452   0.990       .  S
O1432      C1436   1.276       .  A
O1433      C1436   1.312       .  A
O1434      H1444   0.990       .  S
O1435      H1448   0.990       .  S
C1436      C1672   1.480       .  S
H1440      O3131   0.964       .  S
H1454      O3146   0.989       .  S
H1455      O3138   0.990       .  S
H1457      O3153   0.991       .  S
Zr1459     O1460   2.446       .  S
Zr1459     O1461   2.449       .  S
Zr1459     O1462   2.450       .  S
Zr1459     O1465   2.378       .  S
O1460      H1516   0.990       .  S
O1460      H1524   0.991       .  S
O1461      C1481   1.286       .  A
O1462      C1483   1.282       .  A
O1463     Zr1473   2.576       .  S
O1464      C1483   1.273       .  A
O1465      C1482   1.265       .  A
O1466      C1481   1.281       .  A
O1467     Zr1472   2.400       .  S
O1467     Zr1474   2.391       .  S
O1468     Zr1473   2.388       .  S
O1468     Zr1474   2.386       .  S
O1468      H1503   0.964       .  S
O1469     Zr1472   2.408       .  S
O1469     Zr1489   2.392       .  S
O1470     Zr1473   2.389       .  S
O1470     Zr1489   2.374       .  S
Zr1471     O1477   2.406       .  S
Zr1471     O1478   2.393       .  S
Zr1471     O1479   2.359       .  S
Zr1471     O1480   2.403       .  S
Zr1471     O1496   2.440       .  S
Zr1471     O1490   2.400       .  S
Zr1471     O1498   2.395       .  S
Zr1471     O1486   2.459       .  S
Zr1472     O1478   2.386       .  S
Zr1472     O1479   2.378       .  S
Zr1472     O1491   2.446       .  S
Zr1472     O1484   2.436       .  S
Zr1472     O1485   2.422       .  S
Zr1473     O1477   2.411       .  S
Zr1473     O1480   2.375       .  S
Zr1473     O1475   2.433       .  S
Zr1473     O1497   2.436       .  S
Zr1473     O1499   2.565       .  S
Zr1474     O1477   2.396       .  S
Zr1474     O1478   2.412       .  S
Zr1474     O1500   2.435       .  S
Zr1474     O1501   2.436       .  S
Zr1474     O1476   2.438       .  S
O1475      H1512   0.990       .  S
O1476      H1507   0.990       .  S
O1478      H1504   0.966       .  S
O1479     Zr1489   2.361       .  S
O1480     Zr1489   2.377       .  S
O1480      H1505   0.965       .  S
C1481      C1695   1.440       .  S
C1482      C1707   1.475       .  S
C1483      C1666   1.424       .  S
O1485      C1487   1.279       .  A
O1486      C1487   1.288       .  A
C1487      C1661   1.442       .  S
O1488     Zr1489   2.437       .  S
O1488      H1517   0.990       .  S
Zr1489     O1492   2.436       .  S
Zr1489     O1493   2.437       .  S
Zr1489     O1494   2.418       .  S
O1490      C1495   1.277       .  A
O1491      H1508   0.989       .  S
O1491      H1523   0.991       .  S
O1492      H1509   0.990       .  S
O1493      H1513   0.990       .  S
O1493      H1522   0.990       .  S
O1494      C1495   1.280       .  A
C1495      C1667   1.409       .  S
O1496      H1515   0.990       .  S
O1496      H1519   0.990       .  S
O1497      H1511   0.990       .  S
O1497      H1518   0.990       .  S
O1498      C1502   1.277       .  A
O1499      C1502   1.312       .  A
O1500      H1510   0.990       .  S
O1501      H1514   0.990       .  S
C1502      C1706   1.479       .  S
Zr1525     O1526   2.450       .  S
Zr1525     O1527   2.452       .  S
Zr1525     O1528   2.445       .  S
Zr1525     O1531   2.375       .  S
O1526      H1582   0.991       .  S
O1526      H1590   0.991       .  S
O1527      C1547   1.286       .  A
O1528      C1549   1.281       .  A
O1529     Zr1539   2.578       .  S
O1529      C1548   1.311       .  A
O1530      C1549   1.274       .  A
O1532      C1547   1.280       .  A
O1533     Zr1538   2.396   1_545  S
O1533     Zr1540   2.389   1_545  S
O1534     Zr1539   2.391       .  S
O1534     Zr1540   2.390       .  S
O1534      H1569   0.964       .  S
O1535     Zr1538   2.407       .  S
O1535     Zr1555   2.393       .  S
O1535      H1572   0.964   1_565  S
O1536     Zr1539   2.386       .  S
O1536     Zr1555   2.374       .  S
Zr1537     O1543   2.403       .  S
Zr1537     O1544   2.394       .  S
Zr1537     O1545   2.360       .  S
Zr1537     O1546   2.400       .  S
Zr1537     O1562   2.439       .  S
Zr1537     O1556   2.402       .  S
Zr1537     O1564   2.396       .  S
Zr1537     O1552   2.458       .  S
Zr1538     O1544   2.384       .  S
Zr1538     O1545   2.378       .  S
Zr1538     O1557   2.444   1_565  S
Zr1538     O1550   2.434   1_565  S
Zr1538     O1551   2.424       .  S
Zr1539     O1543   2.407       .  S
Zr1539     O1546   2.377       .  S
Zr1539     O1541   2.434       .  S
Zr1539     O1563   2.436       .  S
Zr1539     O1565   2.563       .  S
Zr1540     O1543   2.397       .  S
Zr1540     O1544   2.415       .  S
Zr1540     O1566   2.434       .  S
Zr1540     O1567   2.439       .  S
Zr1540     O1542   2.442   1_565  S
O1541      H1578   0.990       .  S
O1542      H1573   0.990       .  S
O1542      H1587   0.990       .  S
O1544      H1570   0.966       .  S
O1545     Zr1555   2.362       .  S
O1546     Zr1555   2.377       .  S
O1546      H1571   0.965       .  S
C1547      C1680   1.441       .  S
C1549      C1658   1.423       .  S
O1550      H1586   0.988       .  S
O1551      C1553   1.279       .  A
O1552      C1553   1.288       .  A
C1553      C1664   1.441       .  S
O1554     Zr1555   2.439       .  S
O1554      H1583   0.990       .  S
Zr1555     O1558   2.437       .  S
Zr1555     O1559   2.439       .  S
Zr1555     O1560   2.419       .  S
O1556      C1561   1.277       .  A
O1557      H1574   0.989       .  S
O1557      H1589   0.991       .  S
O1558      H1575   0.990       .  S
O1559      H1579   0.990       .  S
O1559      H1588   0.990       .  S
O1560      C1561   1.280       .  A
C1561      C1660   1.411       .  S
O1562      H1581   0.990       .  S
O1562      H1585   0.990       .  S
O1563      H1577   0.990       .  S
O1563      H1584   0.990       .  S
O1564      C1568   1.277       .  A
O1565      C1568   1.312       .  A
O1566      H1576   0.990       .  S
O1567      H1580   0.990       .  S
C1568      C1676   1.479       .  S
Zr1591     O1599   2.377       .  S
Zr1591     O1600   2.392       .  S
Zr1591     O1601   2.409       .  S
Zr1591     O1602   2.416       .  S
Zr1591     O1592   2.446       .  S
Zr1591     O1593   2.452       .  S
Zr1591     O1594   2.444       .  S
Zr1591     O1597   2.377       .  S
O1592      H1648   0.991       .  S
O1592      H1656   0.990       .  S
O1593      C1613   1.286       .  A
O1594      C1615   1.281       .  A
O1595     Zr1605   2.574       .  S
O1595      C1614   1.311       .  A
O1596     Zr1604   2.399       .  S
O1596      C1615   1.274       .  A
O1597      C1614   1.265       .  A
O1598     Zr1606   2.426       .  S
O1598      C1613   1.281       .  A
O1599     Zr1604   2.401       .  S
O1599     Zr1606   2.390       .  S
O1600     Zr1605   2.386       .  S
O1600     Zr1606   2.386       .  S
O1600      H1635   0.964       .  S
O1601     Zr1604   2.408       .  S
O1601     Zr1621   2.393       .  S
O1601      H1638   0.965       .  S
O1602     Zr1605   2.392       .  S
O1602     Zr1621   2.381       .  S
Zr1603     O1609   2.406       .  S
Zr1603     O1610   2.392       .  S
Zr1603     O1611   2.361       .  S
Zr1603     O1612   2.401       .  S
Zr1603     O1628   2.439       .  S
Zr1603     O1622   2.398       .  S
Zr1603     O1630   2.399       .  S
Zr1603     O1618   2.463       .  S
Zr1604     O1610   2.387       .  S
Zr1604     O1611   2.380       .  S
Zr1604     O1623   2.448       .  S
Zr1604     O1616   2.437       .  S
Zr1604     O1617   2.421       .  S
Zr1605     O1609   2.411       .  S
Zr1605     O1612   2.375       .  S
Zr1605     O1607   2.435       .  S
Zr1605     O1629   2.437       .  S
Zr1605     O1631   2.566       .  S
Zr1606     O1609   2.398       .  S
Zr1606     O1610   2.416       .  S
Zr1606     O1632   2.436       .  S
Zr1606     O1633   2.438       .  S
Zr1606     O1608   2.439       .  S
O1607      H1644   0.990       .  S
O1608      H1639   0.990       .  S
O1608      H1653   0.990       .  S
O1610      H1636   0.965       .  S
O1611     Zr1621   2.363       .  S
O1612     Zr1621   2.378       .  S
O1612      H1637   0.965       .  S
C1613      C1662   1.440       .  S
C1614      C1671   1.476       .  S
C1615      C1657   1.423       .  S
O1616      H1652   0.988       .  S
O1617      C1619   1.279       .  A
O1618      C1619   1.289       .  A
C1619      C1674   1.444       .  S
O1620     Zr1621   2.439       .  S
O1620      H1649   0.990       .  S
Zr1621     O1624   2.438       .  S
Zr1621     O1625   2.438       .  S
Zr1621     O1626   2.425       .  S
O1622      C1627   1.276       .  A
O1623      H1640   0.990       .  S
O1623      H1655   0.991       .  S
O1624      H1641   0.990       .  S
O1625      H1645   0.990       .  S
O1625      H1654   0.990       .  S
O1626      C1627   1.282       .  A
C1627      C1659   1.412       .  S
O1628      H1647   0.990       .  S
O1628      H1651   0.990       .  S
O1629      H1643   0.990       .  S
O1629      H1650   0.990       .  S
O1630      C1634   1.277       .  A
O1631      C1634   1.313       .  A
O1632      H1642   0.990       .  S
O1633      H1646   0.990       .  S
C1634      C1670   1.483       .  S
C1657      C1658   1.199       .  T
C1659      C1660   1.192       .  T
C1661      C1662   1.210       .  T
C1663      C1664   1.209       .  T
C1665      C1666   1.199       .  T
C1667      C1668   1.191       .  T
C1669      C1670   1.236       .  T
C1671      C1672   1.234       .  T
C1673      C1674   1.211       .  T
C1675      C1676   1.233       .  T
C1677      C1678   1.234       .  T
C1679      C1680   1.210       .  T
C1681      C1682   1.201       .  T
C1683      C1684   1.192       .  T
C1685      C1686   1.199       .  T
C1687      C1688   1.191       .  T
C1689      C1690   1.210       .  T
C1691      C2814   1.473       .  S
C1691      C1692   1.232       .  T
C1693      C1694   1.234       .  T
C1695      C1696   1.210       .  T
C1697      C1698   1.210       .  T
C1699      C1700   1.213       .  T
C1701      C1702   1.200       .  T
C1703      C1704   1.191       .  T
C1705      C1706   1.234       .  T
C1707      C1708   1.233       .  T
C1709      C1710   1.211       .  T
C1711      C1712   1.235       .  T
C1713      C1714   1.235       .  T
C1715      C1716   1.211       .  T
C1717      C1718   1.209       .  T
C1719      C1720   1.211       .  T
C1721      C1722   1.201       .  T
C1723      C1724   1.192       .  T
C1725      C2616   1.476       .  S
C1725      C1726   1.234       .  T
C1727      C1728   1.234       .  T
Zr1729     O1737   2.377       .  S
Zr1729     O1738   2.394   1_556  S
Zr1729     O1739   2.410       .  S
Zr1729     O1740   2.418       .  S
O1730      H1786   0.990       .  S
O1730      H1794   0.990       .  S
O1731      C1751   1.285       .  A
O1732      C1753   1.283       .  A
O1733     Zr1743   2.573       .  S
O1733      C1752   1.310       .  A
O1734      C1753   1.274       .  A
O1736     Zr1744   2.428   1_554  S
O1737     Zr1742   2.399       .  S
O1737     Zr1744   2.389       .  S
O1738     Zr1743   2.387       .  S
O1738     Zr1744   2.386   1_554  S
O1738      H1773   0.964       .  S
O1739     Zr1742   2.407       .  S
O1739     Zr1759   2.395       .  S
O1739      H1776   0.965       .  S
O1740     Zr1743   2.392   1_556  S
O1740     Zr1759   2.378       .  S
Zr1741     O1747   2.406       .  S
Zr1741     O1748   2.394       .  S
Zr1741     O1749   2.361       .  S
Zr1741     O1750   2.403       .  S
Zr1741     O1766   2.440       .  S
Zr1741     O1760   2.401       .  S
Zr1741     O1768   2.395       .  S
Zr1741     O1756   2.458       .  S
Zr1742     O1748   2.384       .  S
Zr1742     O1749   2.379       .  S
Zr1742     O1761   2.445       .  S
Zr1742     O1754   2.437       .  S
Zr1742     O1755   2.422       .  S
Zr1743     O1747   2.412   1_554  S
Zr1743     O1750   2.377   1_554  S
Zr1743     O1745   2.434       .  S
Zr1743     O1767   2.435       .  S
Zr1743     O1769   2.563       .  S
Zr1744     O1747   2.397       .  S
Zr1744     O1748   2.413       .  S
Zr1744     O1770   2.435   1_556  S
Zr1744     O1771   2.436       .  S
Zr1744     O1746   2.439       .  S
O1745      H1782   0.990       .  S
O1746      H1777   0.990       .  S
O1746      H1791   0.990       .  S
O1748      H1774   0.966       .  S
O1749     Zr1759   2.361       .  S
O1750     Zr1759   2.377       .  S
O1750      H1775   0.965       .  S
C1751      C2582   1.439       .  S
C1753      C2585   1.427       .  S
O1754      H1790   0.988       .  S
O1755      C1757   1.279       .  A
O1756      C1757   1.287       .  A
C1757      C2584   1.441       .  S
O1758     Zr1759   2.438       .  S
O1758      H1787   0.990       .  S
Zr1759     O1762   2.436       .  S
Zr1759     O1763   2.440       .  S
Zr1759     O1764   2.423       .  S
O1760      C1765   1.277       .  A
O1761      H1778   0.990       .  S
O1761      H1793   0.991       .  S
O1762      H1779   0.990       .  S
O1763      H1783   0.990       .  S
O1763      H1792   0.990       .  S
O1764      C1765   1.281       .  A
C1765      C2587   1.412       .  S
O1766      H1785   0.990       .  S
O1766      H1789   0.990       .  S
O1767      H1781   0.990       .  S
O1767      H1788   0.990       .  S
O1768      C1772   1.276       .  A
O1769      C1772   1.312   1_554  A
O1770      H1780   0.990       .  S
O1771      H1784   0.990       .  S
C1772      C2592   1.479   1_556  S
Zr1795     O2667   2.378       .  S
Zr1795     O2668   2.396   1_545  S
Zr1795     O2669   2.406   1_545  S
Zr1795     O2670   2.417   1_545  S
Zr1795     O1796   2.445       .  S
Zr1795     O1797   2.451       .  S
Zr1795     O1798   2.455       .  S
Zr1795     O1801   2.378       .  S
O1796      H1852   0.990       .  S
O1796      H1860   0.990       .  S
O1797      C1817   1.286       .  A
O1798      C1819   1.283       .  A
O1799     Zr1809   2.578       .  S
O1799      C1818   1.311       .  A
O1800     Zr2672   2.399   1_545  S
O1800      C1819   1.273       .  A
O1801      C2682   1.266   1_545  A
O1802     Zr2674   2.424   1_545  S
O1802      C1817   1.280       .  A
O1803     Zr2659   2.378       .  S
O1803     Zr1808   2.400       .  S
O1803     Zr1810   2.390       .  S
O1804     Zr2659   2.397       .  S
O1804     Zr1809   2.389       .  S
O1804     Zr1810   2.388       .  S
O1804      H1839   0.964       .  S
O1805     Zr2659   2.408       .  S
O1805     Zr1808   2.410       .  S
O1805     Zr1825   2.391       .  S
O1805      H1842   0.964       .  S
O1806     Zr2659   2.415       .  S
O1806     Zr1809   2.388       .  S
O1806     Zr1825   2.375       .  S
Zr1807     O1813   2.407       .  S
Zr1807     O1814   2.399       .  S
Zr1807     O1815   2.361       .  S
Zr1807     O1816   2.404       .  S
Zr1807     O1832   2.439       .  S
Zr1807     O1826   2.404       .  S
Zr1807     O1834   2.405       .  S
Zr1807     O1822   2.465       .  S
Zr1808     O1814   2.387       .  S
Zr1808     O1815   2.379       .  S
Zr1808     O1827   2.445       .  S
Zr1808     O1820   2.436       .  S
Zr1808     O2664   2.399       .  S
Zr1808     O1821   2.425       .  S
Zr1809     O1813   2.411       .  S
Zr1809     O1816   2.375       .  S
Zr1809     O1811   2.433       .  S
Zr1809     O1833   2.436       .  S
Zr1809     O1835   2.567       .  S
Zr1810     O1813   2.399       .  S
Zr1810     O1814   2.417       .  S
Zr1810     O1836   2.435       .  S
Zr1810     O1837   2.437       .  S
Zr1810     O1812   2.441       .  S
Zr1810     O2666   2.429       .  S
O1811      H1848   0.990       .  S
O1812      H1843   0.991       .  S
O1812      H1857   0.990       .  S
O1814      H1840   0.966       .  S
O1815     Zr1825   2.362       .  S
O1816     Zr1825   2.380       .  S
O1816      H1841   0.965       .  S
C1817      C2573   1.438       .  S
C1818      O2665   1.266       .  A
C1818      C3439   1.478       .  S
C1819      C2586   1.427       .  S
O1820      H2720   0.989       .  S
O1821      C1823   1.279       .  A
O1822      C1823   1.289       .  A
C1823      C2580   1.444       .  S
O1824     Zr1825   2.439       .  S
O1824      H1853   0.990       .  S
Zr1825     O1828   2.437       .  S
Zr1825     O1829   2.439       .  S
Zr1825     O1830   2.423       .  S
O1826      C1831   1.278       .  A
O1827      H1844   0.990       .  S
O1827      H1859   0.991       .  S
O1828      H1845   0.990       .  S
O1829      H1849   0.990       .  S
O1829      H1858   0.990       .  S
O1830      C1831   1.281       .  A
C1831      C2588   1.412       .  S
O1832      H1851   0.990       .  S
O1832      H1855   0.990       .  S
O1833      H1847   0.990       .  S
O1833      H1854   0.990       .  S
O1834      C1838   1.278       .  A
O1835      C1838   1.313       .  A
O1836      H1846   0.990       .  S
O1837      H1850   0.990       .  S
C1838      C2578   1.484       .  S
H1856      O2684   0.988       .  S
Zr1861     O1869   2.377       .  S
Zr1861     O1870   2.396       .  S
Zr1861     O1871   2.412       .  S
Zr1861     O1872   2.416       .  S
Zr1861     O1862   2.445       .  S
Zr1861     O1863   2.454       .  S
Zr1861     O1864   2.447       .  S
Zr1861     O1867   2.381       .  S
O1862      H1918   0.990       .  S
O1862      H1926   0.990       .  S
O1863      C1883   1.286       .  A
O1864      C1885   1.282       .  A
O1865     Zr1875   2.576       .  S
O1865      C1884   1.311       .  A
O1866     Zr1874   2.399       .  S
O1866      C1885   1.275       .  A
O1867      C1884   1.265       .  A
O1868     Zr1876   2.428       .  S
O1868      C1883   1.281       .  A
O1869     Zr1874   2.403       .  S
O1869     Zr1876   2.389       .  S
O1870     Zr1875   2.389       .  S
O1870     Zr1876   2.386       .  S
O1870      H1905   0.964       .  S
O1871     Zr1874   2.409       .  S
O1871     Zr1891   2.391       .  S
O1871      H1908   0.965       .  S
O1872     Zr1875   2.390       .  S
O1872     Zr1891   2.375       .  S
Zr1873     O1879   2.407       .  S
Zr1873     O1880   2.392       .  S
Zr1873     O1881   2.362       .  S
Zr1873     O1882   2.401       .  S
Zr1873     O1898   2.440       .  S
Zr1873     O1892   2.400       .  S
Zr1873     O1900   2.393       .  S
Zr1873     O1888   2.454       .  S
Zr1874     O1880   2.384       .  S
Zr1874     O1881   2.375       .  S
Zr1874     O1893   2.445       .  S
Zr1874     O1886   2.434       .  S
Zr1874     O1887   2.431       .  S
Zr1875     O1879   2.411       .  S
Zr1875     O1882   2.374       .  S
Zr1875     O1877   2.434       .  S
Zr1875     O1899   2.435       .  S
Zr1875     O1901   2.564       .  S
Zr1876     O1879   2.399       .  S
Zr1876     O1880   2.415       .  S
Zr1876     O1902   2.436       .  S
Zr1876     O1903   2.439       .  S
Zr1876     O1878   2.439       .  S
O1877      H1914   0.990       .  S
O1878      H1909   0.990       .  S
O1878      H1923   0.990       .  S
O1880      H1906   0.965       .  S
O1881     Zr1891   2.362       .  S
O1882     Zr1891   2.380       .  S
O1882      H1907   0.965       .  S
C1883      C2561   1.442       .  S
C1884      C2569   1.479       .  S
C1885      C2565   1.423       .  S
O1886      H1922   0.988       .  S
O1887      C1889   1.280       .  A
O1888      C1889   1.287       .  A
C1889      C2564   1.444       .  S
O1890     Zr1891   2.440       .  S
O1890      H1919   0.990       .  S
Zr1891     O1894   2.437       .  S
Zr1891     O1895   2.437       .  S
Zr1891     O1896   2.416       .  S
O1892      C1897   1.277       .  A
O1893      H1910   0.989       .  S
O1893      H1925   0.991       .  S
O1894      H1911   0.990       .  S
O1895      H1915   0.990       .  S
O1895      H1924   0.990       .  S
O1896      C1897   1.280       .  A
C1897      C2567   1.409       .  S
O1898      H1917   0.990       .  S
O1898      H1921   0.990       .  S
O1899      H1913   0.990       .  S
O1899      H1920   0.990       .  S
O1900      C1904   1.276       .  A
O1901      C1904   1.312       .  A
O1902      H1912   0.991       .  S
O1903      H1916   0.990       .  S
C1904      C2572   1.479       .  S
Zr1927     O1935   2.377       .  S
Zr1927     O1936   2.397       .  S
Zr1927     O1937   2.409       .  S
Zr1927     O1938   2.417       .  S
O1928      H1984   0.990       .  S
O1928      H1992   0.991       .  S
O1929      C1949   1.286       .  A
O1930      C1951   1.283       .  A
O1931     Zr1941   2.574       .  S
O1931      C1950   1.310       .  A
O1932      C1951   1.274       .  A
O1934     Zr1942   2.428       .  S
O1935     Zr1940   2.399       .  S
O1935     Zr1942   2.390       .  S
O1936     Zr1941   2.387       .  S
O1936     Zr1942   2.386       .  S
O1936      H1971   0.964       .  S
O1937     Zr1940   2.409       .  S
O1937     Zr1957   2.392       .  S
O1937      H1974   0.965       .  S
O1938     Zr1941   2.390       .  S
O1938     Zr1957   2.375       .  S
Zr1939     O1945   2.407       .  S
Zr1939     O1946   2.392       .  S
Zr1939     O1947   2.360       .  S
Zr1939     O1948   2.402       .  S
Zr1939     O1964   2.438       .  S
Zr1939     O1958   2.399       .  S
Zr1939     O1966   2.391       .  S
Zr1939     O1954   2.456       .  S
Zr1940     O1946   2.385       .  S
Zr1940     O1947   2.379       .  S
Zr1940     O1959   2.445       .  S
Zr1940     O1952   2.434       .  S
Zr1940     O1953   2.426       .  S
Zr1941     O1945   2.409       .  S
Zr1941     O1948   2.376       .  S
Zr1941     O1943   2.434       .  S
Zr1941     O1965   2.437       .  S
Zr1941     O1967   2.564       .  S
Zr1942     O1945   2.398       .  S
Zr1942     O1946   2.414       .  S
Zr1942     O1968   2.436       .  S
Zr1942     O1969   2.439       .  S
Zr1942     O1944   2.439       .  S
O1943      H1980   0.990       .  S
O1944      H1975   0.990       .  S
O1944      H1989   0.990       .  S
O1946      H1972   0.965       .  S
O1947     Zr1957   2.362       .  S
O1948     Zr1957   2.378       .  S
O1948      H1973   0.965       .  S
C1949      C2554   1.441       .  S
C1951      C2566   1.423       .  S
O1952      H1988   0.988       .  S
O1953      C1955   1.279       .  A
O1954      C1955   1.287       .  A
C1955      C2560   1.442       .  S
O1956     Zr1957   2.438       .  S
O1956      H1985   0.990       .  S
Zr1957     O1960   2.437       .  S
Zr1957     O1961   2.438       .  S
Zr1957     O1962   2.418       .  S
O1958      C1963   1.276       .  A
O1959      H1976   0.989       .  S
O1959      H1991   0.991       .  S
O1960      H1977   0.990       .  S
O1961      H1981   0.990       .  S
O1961      H1990   0.990       .  S
O1962      C1963   1.280       .  A
C1963      C2568   1.409       .  S
O1964      H1983   0.990       .  S
O1964      H1987   0.990       .  S
O1965      H1979   0.990       .  S
O1965      H1986   0.990       .  S
O1966      C1970   1.276       .  A
O1967      C1970   1.312       .  A
O1968      H1978   0.990       .  S
O1969      H1982   0.990       .  S
C1970      C2557   1.478       .  S
Zr1993     O2865   2.375       .  S
Zr1993     O2866   2.396       .  S
Zr1993     O2867   2.411       .  S
Zr1993     O2868   2.417       .  S
Zr1993     O1994   2.447       .  S
Zr1993     O1995   2.455       .  S
Zr1993     O1996   2.445       .  S
Zr1993     O1999   2.374       .  S
O1994      H2050   0.991       .  S
O1994      H2058   0.991       .  S
O1995      C2015   1.287       .  A
O1996      C2017   1.282       .  A
O1997     Zr2007   2.577       .  S
O1997      C2880   1.311   1_545  A
O1998     Zr2870   2.396       .  S
O1998      C2017   1.273       .  A
O1999      C2016   1.264       .  A
O2000     Zr2872   2.430       .  S
O2000      C2015   1.281       .  A
O2001     Zr2857   2.376       .  S
O2001     Zr2006   2.401   1_565  S
O2001     Zr2008   2.390   1_565  S
O2002     Zr2857   2.396   1_545  S
O2002     Zr2007   2.389       .  S
O2002     Zr2008   2.388       .  S
O2002      H2037   0.964       .  S
O2003     Zr2857   2.409       .  S
O2003     Zr2006   2.408   1_565  S
O2003     Zr2023   2.393   1_565  S
O2003      H2904   0.965       .  S
O2004     Zr2857   2.419   1_545  S
O2004     Zr2007   2.388       .  S
O2004     Zr2023   2.374       .  S
Zr2005     O2011   2.405       .  S
Zr2005     O2012   2.392       .  S
Zr2005     O2013   2.361       .  S
Zr2005     O2014   2.403       .  S
Zr2005     O2030   2.439       .  S
Zr2005     O2024   2.394       .  S
Zr2005     O2032   2.396       .  S
Zr2005     O2020   2.457       .  S
Zr2006     O2012   2.383       .  S
Zr2006     O2013   2.377       .  S
Zr2006     O2025   2.446   1_545  S
Zr2006     O2018   2.434   1_545  S
Zr2006     O2862   2.396   1_545  S
Zr2006     O2019   2.422       .  S
Zr2007     O2011   2.411       .  S
Zr2007     O2014   2.375       .  S
Zr2007     O2009   2.433       .  S
Zr2007     O2031   2.435       .  S
Zr2007     O2033   2.567       .  S
Zr2008     O2011   2.399       .  S
Zr2008     O2012   2.415       .  S
Zr2008     O2034   2.434       .  S
Zr2008     O2035   2.440       .  S
Zr2008     O2010   2.441   1_545  S
Zr2008     O2864   2.433   1_545  S
O2009      H2046   0.990       .  S
O2010      H2041   0.990       .  S
O2010      H2919   0.990       .  S
O2012      H2038   0.965       .  S
O2013     Zr2023   2.362       .  S
O2014     Zr2023   2.378       .  S
O2014      H2039   0.965       .  S
C2015      C2563   1.443       .  S
C2016      O2861   1.310       .  A
C2016      C2558   1.474       .  S
C2017      C2549   1.423       .  S
O2018      H2918   0.988       .  S
O2019      C2021   1.278       .  A
O2020      C2021   1.287       .  A
C2021      C2581   1.441       .  S
O2022     Zr2023   2.440       .  S
O2022      H2051   0.990       .  S
Zr2023     O2026   2.435       .  S
Zr2023     O2027   2.441       .  S
Zr2023     O2028   2.417       .  S
O2024      C2029   1.276       .  A
O2025      H2042   0.989       .  S
O2025      H2057   0.991       .  S
O2026      H2043   0.990       .  S
O2027      H2047   0.990       .  S
O2027      H2056   0.990       .  S
O2028      C2029   1.280       .  A
C2029      C2552   1.406       .  S
O2030      H2049   0.990       .  S
O2030      H2053   0.990       .  S
O2031      H2045   0.990       .  S
O2031      H2052   0.990       .  S
O2032      C2036   1.277       .  A
O2033      C2036   1.313       .  A
O2034      H2044   0.990       .  S
O2035      H2048   0.990       .  S
C2036      C2556   1.481       .  S
H2040      O2867   0.965       .  S
H2054      O2882   0.989       .  S
H2055      O2874   0.990       .  S
Zr2059     O2067   2.373       .  S
Zr2059     O2068   2.395       .  S
Zr2059     O2069   2.411       .  S
Zr2059     O2070   2.415       .  S
Zr2059     O2060   2.444       .  S
Zr2059     O2061   2.456       .  S
Zr2059     O2062   2.448       .  S
Zr2059     O2065   2.378       .  S
O2060      H2116   0.990       .  S
O2060      H2124   0.990       .  S
O2061      C2081   1.287       .  A
O2062      C2083   1.282       .  A
O2063     Zr2073   2.573       .  S
O2063      C2082   1.310       .  A
O2064     Zr2072   2.398       .  S
O2064      C2083   1.274       .  A
O2065      C2082   1.265       .  A
O2066     Zr2074   2.426       .  S
O2066      C2081   1.281       .  A
O2067     Zr2072   2.398       .  S
O2067     Zr2074   2.386       .  S
O2068     Zr2073   2.389       .  S
O2068     Zr2074   2.388       .  S
O2068      H2103   0.964       .  S
O2069     Zr2072   2.407       .  S
O2069     Zr2089   2.389       .  S
O2069      H2106   0.964       .  S
O2070     Zr2073   2.390       .  S
O2070     Zr2089   2.376       .  S
Zr2071     O2077   2.405       .  S
Zr2071     O2078   2.394       .  S
Zr2071     O2079   2.364       .  S
Zr2071     O2080   2.402       .  S
Zr2071     O2096   2.440       .  S
Zr2071     O2090   2.395       .  S
Zr2071     O2098   2.399       .  S
Zr2071     O2086   2.457       .  S
Zr2072     O2078   2.387       .  S
Zr2072     O2079   2.379       .  S
Zr2072     O2091   2.444       .  S
Zr2072     O2084   2.432       .  S
Zr2072     O2085   2.421       .  S
Zr2073     O2077   2.411       .  S
Zr2073     O2080   2.375       .  S
Zr2073     O2075   2.434       .  S
Zr2073     O2097   2.436   1_554  S
Zr2073     O2099   2.565       .  S
Zr2074     O2077   2.400       .  S
Zr2074     O2078   2.415       .  S
Zr2074     O2100   2.435       .  S
Zr2074     O2101   2.436       .  S
Zr2074     O2076   2.439       .  S
O2075      H2112   0.990       .  S
O2076      H2107   0.990       .  S
O2076      H2121   0.990       .  S
O2078      H2104   0.966       .  S
O2079     Zr2089   2.365       .  S
O2080     Zr2089   2.382       .  S
O2080      H2105   0.965       .  S
C2081      C2579   1.442   1_554  S
C2082      C2591   1.475       .  S
C2083      C2550   1.422       .  S
O2084      H2120   0.989       .  S
O2085      C2087   1.278       .  A
O2086      C2087   1.287       .  A
C2087      C2553   1.442       .  S
O2088     Zr2089   2.441       .  S
O2088      H2117   0.990       .  S
Zr2089     O2092   2.437       .  S
Zr2089     O2093   2.438       .  S
Zr2089     O2094   2.416       .  S
O2090      C2095   1.276       .  A
O2091      H2108   0.989       .  S
O2091      H2123   0.991       .  S
O2092      H2109   0.990       .  S
O2093      H2113   0.990       .  S
O2093      H2122   0.990       .  S
O2094      C2095   1.280       .  A
C2095      C2551   1.406       .  S
O2096      H2115   0.990       .  S
O2096      H2119   0.990       .  S
O2097      H2111   0.990       .  S
O2097      H2118   0.990       .  S
O2098      C2102   1.277       .  A
O2099      C2102   1.312       .  A
O2100      H2110   0.990   1_554  S
O2101      H2114   0.990       .  S
C2102      C2590   1.482       .  S
Zr2125     O2133   2.379       .  S
Zr2125     O2134   2.395       .  S
Zr2125     O2135   2.409       .  S
Zr2125     O2136   2.415       .  S
Zr2125     O2126   2.446       .  S
Zr2125     O2127   2.450       .  S
Zr2125     O2128   2.447       .  S
Zr2125     O2131   2.380       .  S
O2126      H2182   0.990       .  S
O2126      H2190   0.991       .  S
O2127      C2147   1.286       .  A
O2128      C2149   1.282       .  A
O2129     Zr2139   2.575       .  S
O2129      C2148   1.311       .  A
O2130     Zr2138   2.397       .  S
O2130      C2149   1.273       .  A
O2131      C2148   1.266       .  A
O2132     Zr2140   2.429       .  S
O2132      C2147   1.282       .  A
O2133     Zr2138   2.401       .  S
O2133     Zr2140   2.391       .  S
O2134     Zr2139   2.386       .  S
O2134     Zr2140   2.387       .  S
O2134      H2169   0.964       .  S
O2135     Zr2138   2.407       .  S
O2135     Zr2155   2.392       .  S
O2135      H2172   0.964       .  S
O2136     Zr2139   2.386       .  S
O2136     Zr2155   2.376       .  S
Zr2137     O2143   2.406       .  S
Zr2137     O2144   2.393       .  S
Zr2137     O2145   2.360       .  S
Zr2137     O2146   2.402       .  S
Zr2137     O2162   2.440       .  S
Zr2137     O2156   2.402       .  S
Zr2137     O2164   2.398       .  S
Zr2137     O2152   2.461       .  S
Zr2138     O2144   2.383       .  S
Zr2138     O2145   2.378       .  S
Zr2138     O2157   2.446       .  S
Zr2138     O2150   2.437       .  S
Zr2138     O2151   2.425       .  S
Zr2139     O2143   2.411       .  S
Zr2139     O2146   2.378       .  S
Zr2139     O2141   2.433       .  S
Zr2139     O2163   2.438       .  S
Zr2139     O2165   2.562       .  S
Zr2140     O2143   2.397       .  S
Zr2140     O2144   2.414       .  S
Zr2140     O2166   2.436       .  S
Zr2140     O2167   2.439       .  S
Zr2140     O2142   2.439       .  S
O2141      H2178   0.990       .  S
O2142      H2173   0.990       .  S
O2142      H2187   0.990       .  S
O2144      H2170   0.965       .  S
O2145     Zr2155   2.362       .  S
O2146     Zr2155   2.378       .  S
O2146      H2171   0.965       .  S
C2147      C2583   1.440       .  S
C2148      C2577   1.479       .  S
C2149      C2546   1.424       .  S
O2150      H2186   0.988       .  S
O2151      C2153   1.279       .  A
O2152      C2153   1.288       .  A
C2153      C2543   1.444       .  S
O2154     Zr2155   2.439       .  S
O2154      H2183   0.990       .  S
Zr2155     O2158   2.436       .  S
Zr2155     O2159   2.440       .  S
Zr2155     O2160   2.421       .  S
O2156      C2161   1.277       .  A
O2157      H2174   0.989       .  S
O2157      H2189   0.991       .  S
O2158      H2175   0.990       .  S
O2159      H2179   0.990       .  S
O2159      H2188   0.990       .  S
O2160      C2161   1.281       .  A
C2161      C2547   1.413       .  S
O2162      H2181   0.990       .  S
O2162      H2185   0.990       .  S
O2163      H2177   0.990       .  S
O2163      H2184   0.990       .  S
O2164      C2168   1.277       .  A
O2165      C2168   1.312       .  A
O2166      H2176   0.990       .  S
O2167      H2180   0.990       .  S
C2168      C2576   1.480       .  S
Zr2191     O2199   2.375       .  S
Zr2191     O2192   2.447       .  S
Zr2191     O2193   2.455       .  S
Zr2191     O2194   2.450       .  S
Zr2191     O2197   2.375       .  S
O2192      H2248   0.990       .  S
O2192      H2256   0.991       .  S
O2193      C2213   1.286       .  A
O2194      C2215   1.282       .  A
O2195     Zr2205   2.577       .  S
O2196      C2215   1.273       .  A
O2197      C2214   1.266       .  A
O2198      C2213   1.281       .  A
O2200     Zr2205   2.386       .  S
O2200     Zr2206   2.388       .  S
O2200      H2235   0.964       .  S
O2201     Zr2204   2.406       .  S
O2201     Zr2221   2.392   1_455  S
O2202     Zr2205   2.389       .  S
O2202     Zr2221   2.373       .  S
Zr2203     O2209   2.407       .  S
Zr2203     O2210   2.395       .  S
Zr2203     O2211   2.362       .  S
Zr2203     O2212   2.402       .  S
Zr2203     O2228   2.440       .  S
Zr2203     O2222   2.404       .  S
Zr2203     O2230   2.395       .  S
Zr2203     O2218   2.457       .  S
Zr2204     O2210   2.386   1_455  S
Zr2204     O2211   2.378   1_455  S
Zr2204     O2223   2.446       .  S
Zr2204     O2216   2.437       .  S
Zr2204     O2217   2.421   1_455  S
Zr2205     O2209   2.411       .  S
Zr2205     O2212   2.376       .  S
Zr2205     O2207   2.433       .  S
Zr2205     O2229   2.438       .  S
Zr2205     O2231   2.563       .  S
Zr2206     O2209   2.397       .  S
Zr2206     O2210   2.415       .  S
Zr2206     O2232   2.437       .  S
Zr2206     O2233   2.437       .  S
Zr2206     O2208   2.439   1_655  S
O2207      H2244   0.990       .  S
O2208      H2239   0.990       .  S
O2210      H2236   0.966       .  S
O2211     Zr2221   2.365       .  S
O2212     Zr2221   2.381       .  S
O2212      H2237   0.965       .  S
C2213      C2537   1.442       .  S
C2214      C2539   1.474       .  S
C2215      C2545   1.424       .  S
O2217      C2219   1.278       .  A
O2218      C2219   1.287       .  A
C2219      C2574   1.440       .  S
O2220     Zr2221   2.440       .  S
O2220      H2249   0.990       .  S
Zr2221     O2224   2.436       .  S
Zr2221     O2225   2.438       .  S
Zr2221     O2226   2.420       .  S
O2222      C2227   1.278       .  A
O2223      H2240   0.989       .  S
O2224      H2241   0.990       .  S
O2225      H2245   0.990       .  S
O2225      H2254   0.990       .  S
O2226      C2227   1.281       .  A
C2227      C2548   1.413       .  S
O2228      H2247   0.990       .  S
O2228      H2251   0.990       .  S
O2229      H2243   0.990       .  S
O2229      H2250   0.990       .  S
O2230      C2234   1.277       .  A
O2231      C2234   1.312       .  A
O2232      H2242   0.990       .  S
O2233      H2246   0.990       .  S
C2234      C2542   1.479       .  S
Zr2257     O2265   2.377       .  S
Zr2257     O2258   2.448       .  S
Zr2257     O2259   2.450       .  S
Zr2257     O2260   2.444       .  S
Zr2257     O2263   2.377       .  S
O2258      H2314   0.991       .  S
O2258      H2322   0.991       .  S
O2259      C2279   1.286       .  A
O2260      C2281   1.280       .  A
O2261     Zr2271   2.578       .  S
O2262      C2281   1.274       .  A
O2263      C2280   1.265       .  A
O2264      C2279   1.281       .  A
O2266     Zr2271   2.389       .  S
O2266     Zr2272   2.387       .  S
O2266      H2301   0.964   1_655  S
O2267     Zr2270   2.409       .  S
O2267     Zr2287   2.392   1_455  S
O2268     Zr2271   2.392       .  S
O2268     Zr2287   2.377       .  S
Zr2269     O2275   2.406       .  S
Zr2269     O2276   2.394       .  S
Zr2269     O2277   2.363       .  S
Zr2269     O2278   2.402       .  S
Zr2269     O2294   2.438       .  S
Zr2269     O2288   2.398       .  S
Zr2269     O2296   2.399       .  S
Zr2269     O2284   2.458       .  S
Zr2270     O2276   2.387   1_455  S
Zr2270     O2277   2.381   1_455  S
Zr2270     O2289   2.446       .  S
Zr2270     O2282   2.436       .  S
Zr2270     O2283   2.426   1_455  S
Zr2271     O2275   2.413       .  S
Zr2271     O2278   2.375       .  S
Zr2271     O2273   2.434       .  S
Zr2271     O2295   2.436       .  S
Zr2271     O2297   2.567       .  S
Zr2272     O2275   2.399       .  S
Zr2272     O2276   2.412       .  S
Zr2272     O2298   2.436       .  S
Zr2272     O2299   2.437       .  S
Zr2272     O2274   2.440   1_655  S
O2273      H2310   0.990       .  S
O2274      H2305   0.990       .  S
O2276      H2302   0.966       .  S
O2277     Zr2287   2.364       .  S
O2278     Zr2287   2.378       .  S
O2278      H2303   0.965       .  S
C2279      C2527   1.440       .  S
C2280      C2533   1.475       .  S
C2281      C2529   1.422       .  S
O2283      C2285   1.280       .  A
O2284      C2285   1.288       .  A
C2285      C2562   1.444       .  S
O2286     Zr2287   2.440       .  S
O2286      H2315   0.990       .  S
Zr2287     O2290   2.437       .  S
Zr2287     O2291   2.439       .  S
Zr2287     O2292   2.422       .  S
O2288      C2293   1.276       .  A
O2289      H2306   0.989       .  S
O2290      H2307   0.990       .  S
O2291      H2311   0.990       .  S
O2291      H2320   0.990       .  S
O2292      C2293   1.281       .  A
C2293      C2532   1.411       .  S
O2294      H2313   0.990       .  S
O2294      H2317   0.990       .  S
O2295      H2309   0.990       .  S
O2295      H2316   0.990       .  S
O2296      C2300   1.277       .  A
O2297      C2300   1.313       .  A
O2298      H2308   0.990       .  S
O2299      H2312   0.990       .  S
C2300      C2536   1.484       .  S
Zr2323     O3195   2.376       .  S
Zr2323     O3196   2.395       .  S
Zr2323     O3197   2.407       .  S
Zr2323     O3198   2.418       .  S
Zr2323     O2324   2.446       .  S
Zr2323     O2325   2.450       .  S
Zr2323     O2326   2.446       .  S
Zr2323     O2329   2.376       .  S
O2324      H2380   0.990       .  S
O2324      H2388   0.991       .  S
O2325      C2345   1.286       .  A
O2326      C2347   1.281       .  A
O2327     Zr2337   2.574       .  S
O2327      C3210   1.310   1_545  A
O2328     Zr3200   2.399       .  S
O2328      C2347   1.274       .  A
O2329      C2346   1.265       .  A
O2330     Zr3202   2.429       .  S
O2330      C2345   1.281       .  A
O2331     Zr3187   2.378       .  S
O2331     Zr2336   2.400       .  S
O2331     Zr2338   2.391   1_565  S
O2332     Zr3187   2.397   1_545  S
O2332     Zr2337   2.385       .  S
O2332     Zr2338   2.386       .  S
O2332      H2367   0.964       .  S
O2333     Zr3187   2.409       .  S
O2333     Zr2336   2.407       .  S
O2333     Zr2353   2.392   1_565  S
O2333      H3234   0.965       .  S
O2334     Zr3187   2.418   1_545  S
O2334     Zr2337   2.392       .  S
O2334     Zr2353   2.378       .  S
Zr2335     O2341   2.407       .  S
Zr2335     O2342   2.396       .  S
Zr2335     O2343   2.364       .  S
Zr2335     O2344   2.402       .  S
Zr2335     O2360   2.439       .  S
Zr2335     O2354   2.399       .  S
Zr2335     O2362   2.400       .  S
Zr2335     O2350   2.459       .  S
Zr2336     O2342   2.387   1_565  S
Zr2336     O2343   2.380   1_565  S
Zr2336     O2355   2.447       .  S
Zr2336     O2348   2.435       .  S
Zr2336     O3192   2.399       .  S
Zr2336     O2349   2.425   1_565  S
Zr2337     O2341   2.412       .  S
Zr2337     O2344   2.375       .  S
Zr2337     O2339   2.432       .  S
Zr2337     O2361   2.437       .  S
Zr2337     O2363   2.566       .  S
Zr2338     O2341   2.398       .  S
Zr2338     O2342   2.415       .  S
Zr2338     O2364   2.436       .  S
Zr2338     O2365   2.437       .  S
Zr2338     O2340   2.440   1_545  S
Zr2338     O3194   2.433   1_545  S
O2339      H2376   0.990       .  S
O2340      H2371   0.990       .  S
O2340      H3249   0.990       .  S
O2342      H2368   0.966       .  S
O2343     Zr2353   2.364       .  S
O2344     Zr2353   2.377       .  S
O2344      H2369   0.965       .  S
C2345      C2559   1.440       .  S
C2346      O3191   1.310       .  A
C2346      C2571   1.475       .  S
C2347      C2530   1.423       .  S
O2348      H3248   0.989       .  S
O2349      C2351   1.279       .  A
O2350      C2351   1.288       .  A
C2351      C2525   1.443       .  S
O2352     Zr2353   2.440       .  S
O2352      H2381   0.990       .  S
Zr2353     O2356   2.436       .  S
Zr2353     O2357   2.439       .  S
Zr2353     O2358   2.421       .  S
O2354      C2359   1.277       .  A
O2355      H2372   0.990       .  S
O2355      H2387   0.991       .  S
O2356      H2373   0.990       .  S
O2357      H2377   0.990       .  S
O2357      H2386   0.990       .  S
O2358      C2359   1.280       .  A
C2359      C2531   1.411       .  S
O2360      H2379   0.990       .  S
O2360      H2383   0.990       .  S
O2361      H2375   0.990       .  S
O2361      H2382   0.990       .  S
O2362      C2366   1.277       .  A
O2363      C2366   1.312       .  A
O2364      H2374   0.990       .  S
O2365      H2378   0.990       .  S
C2366      C2570   1.483       .  S
H2370      O3197   0.964       .  S
H2384      O3212   0.988       .  S
H2385      O3204   0.990       .  S
Zr2389     O3261   2.375       .  S
Zr2389     O3262   2.398   1_545  S
Zr2389     O3263   2.411   1_545  S
Zr2389     O3264   2.420   1_545  S
Zr2389     O2390   2.447       .  S
Zr2389     O2391   2.456       .  S
Zr2389     O2392   2.452       .  S
Zr2389     O2395   2.378       .  S
O2390      H2446   0.990       .  S
O2390      H2454   0.991       .  S
O2391      C2411   1.287       .  A
O2392      C2413   1.283       .  A
O2393     Zr2403   2.577       .  S
O2393      C2412   1.311       .  A
O2394     Zr3266   2.395   1_545  S
O2394      C2413   1.274       .  A
O2395      C3276   1.265   1_545  A
O2396     Zr3268   2.428   1_545  S
O2396      C2411   1.281       .  A
O2397     Zr3253   2.374       .  S
O2397     Zr2402   2.398       .  S
O2397     Zr2404   2.389       .  S
O2398     Zr3253   2.397       .  S
O2398     Zr2403   2.389       .  S
O2398     Zr2404   2.388       .  S
O2398      H2433   0.964       .  S
O2399     Zr3253   2.409       .  S
O2399     Zr2402   2.410       .  S
O2399     Zr2419   2.393       .  S
O2399      H2436   0.964       .  S
O2400     Zr3253   2.414       .  S
O2400     Zr2403   2.387       .  S
O2400     Zr2419   2.374       .  S
Zr2401     O2407   2.408       .  S
Zr2401     O2408   2.392       .  S
Zr2401     O2409   2.360       .  S
Zr2401     O2410   2.401       .  S
Zr2401     O2426   2.440       .  S
Zr2401     O2420   2.402       .  S
Zr2401     O2428   2.392       .  S
Zr2401     O2416   2.457       .  S
Zr2402     O2408   2.385       .  S
Zr2402     O2409   2.380       .  S
Zr2402     O2421   2.445       .  S
Zr2402     O2414   2.434       .  S
Zr2402     O3258   2.400       .  S
Zr2402     O2415   2.425       .  S
Zr2403     O2407   2.411       .  S
Zr2403     O2410   2.374       .  S
Zr2403     O2405   2.434       .  S
Zr2403     O2427   2.436       .  S
Zr2403     O2429   2.565       .  S
Zr2404     O2407   2.399       .  S
Zr2404     O2408   2.415       .  S
Zr2404     O2430   2.435       .  S
Zr2404     O2431   2.436       .  S
Zr2404     O2406   2.439       .  S
Zr2404     O3260   2.428       .  S
O2405      H2442   0.990       .  S
O2406      H2437   0.990       .  S
O2406      H2451   0.990       .  S
O2408      H2434   0.966       .  S
O2409     Zr2419   2.363       .  S
O2410     Zr2419   2.377       .  S
O2410      H2435   0.965       .  S
C2411      C2544   1.442       .  S
C2412      O3259   1.265       .  A
C2412      C3405   1.474       .  S
C2413      C2522   1.425       .  S
O2414      H2450   0.988       .  S
O2415      C2417   1.279       .  A
O2416      C2417   1.287       .  A
C2417      C2528   1.441       .  S
O2418     Zr2419   2.439       .  S
O2418      H2447   0.990       .  S
Zr2419     O2422   2.436       .  S
Zr2419     O2423   2.439       .  S
Zr2419     O2424   2.419       .  S
O2420      C2425   1.277       .  A
O2421      H2438   0.990       .  S
O2421      H2453   0.991       .  S
O2422      H2439   0.990       .  S
O2423      H2443   0.990       .  S
O2423      H2452   0.990       .  S
O2424      C2425   1.280       .  A
C2425      C2524   1.411       .  S
O2426      H2445   0.990       .  S
O2426      H2449   0.990       .  S
O2427      H2441   0.990       .  S
O2427      H2448   0.990       .  S
O2428      C2432   1.276       .  A
O2429      C2432   1.312       .  A
O2430      H2440   0.990       .  S
O2431      H2444   0.990       .  S
C2432      C2540   1.479       .  S
Zr2455     O2463   2.379       .  S
Zr2455     O2464   2.396       .  S
Zr2455     O2465   2.412       .  S
Zr2455     O2466   2.418       .  S
Zr2455     O2456   2.446       .  S
Zr2455     O2457   2.451       .  S
Zr2455     O2458   2.450       .  S
Zr2455     O2461   2.383       .  S
O2456      H2512   0.990       .  S
O2456      H2520   0.990       .  S
O2457      C2477   1.286       .  A
O2458      C2479   1.282       .  A
O2459     Zr2469   2.575       .  S
O2459      C2478   1.310       .  A
O2460     Zr2468   2.398       .  S
O2460      C2479   1.274       .  A
O2461      C2478   1.265       .  A
O2462     Zr2470   2.429       .  S
O2462      C2477   1.281       .  A
O2463     Zr2468   2.400       .  S
O2463     Zr2470   2.390       .  S
O2464     Zr2469   2.386       .  S
O2464     Zr2470   2.386       .  S
O2464      H2499   0.964       .  S
O2465     Zr2468   2.406       .  S
O2465     Zr2485   2.393       .  S
O2465      H2502   0.965       .  S
O2466     Zr2469   2.392       .  S
O2466     Zr2485   2.377       .  S
Zr2467     O2473   2.406       .  S
Zr2467     O2474   2.394       .  S
Zr2467     O2475   2.361       .  S
Zr2467     O2476   2.400       .  S
Zr2467     O2492   2.439       .  S
Zr2467     O2486   2.399       .  S
Zr2467     O2494   2.397       .  S
Zr2467     O2482   2.458       .  S
Zr2468     O2474   2.385       .  S
Zr2468     O2475   2.376       .  S
Zr2468     O2487   2.446       .  S
Zr2468     O2480   2.435       .  S
Zr2468     O2481   2.423       .  S
Zr2469     O2473   2.411       .  S
Zr2469     O2476   2.376       .  S
Zr2469     O2471   2.434       .  S
Zr2469     O2493   2.437       .  S
Zr2469     O2495   2.563       .  S
Zr2470     O2473   2.398       .  S
Zr2470     O2474   2.416       .  S
Zr2470     O2496   2.435       .  S
Zr2470     O2497   2.439       .  S
Zr2470     O2472   2.439       .  S
O2471      H2508   0.990       .  S
O2472      H2503   0.990       .  S
O2472      H2517   0.990       .  S
O2474      H2500   0.965       .  S
O2475     Zr2485   2.362       .  S
O2476     Zr2485   2.378       .  S
O2476      H2501   0.965       .  S
C2477      C2526   1.441       .  S
C2478      C2535   1.479       .  S
C2479      C2521   1.425       .  S
O2480      H2516   0.988       .  S
O2481      C2483   1.279       .  A
O2482      C2483   1.287       .  A
C2483      C2538   1.443       .  S
O2484     Zr2485   2.439       .  S
O2484      H2513   0.990       .  S
Zr2485     O2488   2.436       .  S
Zr2485     O2489   2.439       .  S
Zr2485     O2490   2.419       .  S
O2486      C2491   1.277       .  A
O2487      H2504   0.989       .  S
O2487      H2519   0.991       .  S
O2488      H2505   0.990       .  S
O2489      H2509   0.990       .  S
O2489      H2518   0.990       .  S
O2490      C2491   1.280       .  A
C2491      C2523   1.410       .  S
O2492      H2511   0.990       .  S
O2492      H2515   0.990       .  S
O2493      H2507   0.990       .  S
O2493      H2514   0.990       .  S
O2494      C2498   1.277       .  A
O2495      C2498   1.312       .  A
O2496      H2506   0.990       .  S
O2497      H2510   0.990       .  S
C2498      C2534   1.479       .  S
C2521      C2522   1.201       .  T
C2523      C2524   1.192       .  T
C2525      C2526   1.211       .  T
C2527      C2528   1.210       .  T
C2529      C2530   1.198       .  T
C2531      C2532   1.192       .  T
C2533      C2534   1.234       .  T
C2535      C2536   1.236       .  T
C2537      C2538   1.211       .  T
C2539      C2540   1.233       .  T
C2541      C3276   1.475   1_545  S
C2541      C2542   1.234       .  T
C2543      C2544   1.211       .  T
C2545      C2546   1.200       .  T
C2547      C2548   1.193       .  T
C2549      C2550   1.199       .  T
C2551      C2552   1.189       .  T
C2553      C2554   1.210       .  T
C2555      C2556   1.235       .  T
C2557      C2558   1.233       .  T
C2559      C2560   1.210       .  T
C2561      C2562   1.211       .  T
C2563      C2564   1.211       .  T
C2565      C2566   1.199       .  T
C2567      C2568   1.191       .  T
C2569      C2570   1.236       .  T
C2571      C2572   1.233       .  T
C2573      C2574   1.209       .  T
C2575      C2682   1.476   1_545  S
C2575      C2576   1.234       .  T
C2577      C2578   1.236       .  T
C2579      C2580   1.211       .  T
C2581      C2582   1.209       .  T
C2583      C2584   1.209       .  T
C2585      C2586   1.202       .  T
C2587      C2588   1.193       .  T
C2589      C2590   1.235       .  T
C2591      C2592   1.234       .  T
Zr2593     O2601   2.378       .  S
Zr2593     O2602   2.398   1_556  S
Zr2593     O2603   2.407       .  S
Zr2593     O2604   2.416       .  S
O2594      H2650   0.990       .  S
O2594      H2658   0.990       .  S
O2595      C2615   1.286       .  A
O2596      C2617   1.283       .  A
O2597     Zr2607   2.576       .  S
O2597      C2616   1.311       .  A
O2598      C2617   1.273       .  A
O2600     Zr2608   2.429   1_554  S
O2601     Zr2606   2.399       .  S
O2601     Zr2608   2.389       .  S
O2602     Zr2607   2.388       .  S
O2602     Zr2608   2.388   1_554  S
O2602      H2637   0.964       .  S
O2603     Zr2606   2.408       .  S
O2603     Zr2623   2.392       .  S
O2603      H2640   0.965       .  S
O2604     Zr2607   2.389   1_556  S
O2604     Zr2623   2.374       .  S
Zr2605     O2611   2.409       .  S
Zr2605     O2612   2.394       .  S
Zr2605     O2613   2.359       .  S
Zr2605     O2614   2.403       .  S
Zr2605     O2630   2.440       .  S
Zr2605     O2624   2.398       .  S
Zr2605     O2632   2.397       .  S
Zr2605     O2620   2.464       .  S
Zr2606     O2612   2.386       .  S
Zr2606     O2613   2.378       .  S
Zr2606     O2625   2.445       .  S
Zr2606     O2618   2.437       .  S
Zr2606     O2619   2.423       .  S
Zr2607     O2611   2.413   1_554  S
Zr2607     O2614   2.375   1_554  S
Zr2607     O2609   2.434       .  S
Zr2607     O2631   2.435       .  S
Zr2607     O2633   2.561       .  S
Zr2608     O2611   2.398       .  S
Zr2608     O2612   2.414       .  S
Zr2608     O2634   2.435   1_556  S
Zr2608     O2635   2.436       .  S
Zr2608     O2610   2.438       .  S
O2609      H2646   0.990       .  S
O2610      H2641   0.990       .  S
O2610      H2655   0.990       .  S
O2612      H2638   0.966       .  S
O2613     Zr2623   2.361       .  S
O2614     Zr2623   2.378       .  S
O2614      H2639   0.965       .  S
C2615      C3446   1.440       .  S
C2617      C3449   1.425       .  S
O2618      H2654   0.988       .  S
O2619      C2621   1.279       .  A
O2620      C2621   1.289       .  A
C2621      C3448   1.444       .  S
O2622     Zr2623   2.437       .  S
O2622      H2651   0.990       .  S
Zr2623     O2626   2.435       .  S
Zr2623     O2627   2.439       .  S
Zr2623     O2628   2.420       .  S
O2624      C2629   1.276       .  A
O2625      H2642   0.990       .  S
O2625      H2657   0.991       .  S
O2626      H2643   0.990       .  S
O2627      H2647   0.990       .  S
O2627      H2656   0.990       .  S
O2628      C2629   1.280       .  A
C2629      C3451   1.409       .  S
O2630      H2649   0.990       .  S
O2630      H2653   0.990       .  S
O2631      H2645   0.990       .  S
O2631      H2652   0.990       .  S
O2632      C2636   1.277       .  A
O2633      C2636   1.312   1_554  A
O2634      H2644   0.990       .  S
O2635      H2648   0.990       .  S
C2636      C3456   1.479   1_556  S
Zr2659     O2660   2.446       .  S
Zr2659     O2661   2.450       .  S
Zr2659     O2662   2.452       .  S
Zr2659     O2665   2.379       .  S
O2660      H2716   0.990       .  S
O2660      H2724   0.990       .  S
O2661      C2681   1.286       .  A
O2662      C2683   1.283       .  A
O2663     Zr2673   2.574       .  S
O2663      C2682   1.310       .  A
O2664      C2683   1.273       .  A
O2666      C2681   1.281       .  A
O2667     Zr2672   2.399   1_545  S
O2667     Zr2674   2.392   1_545  S
O2668     Zr2673   2.386       .  S
O2668     Zr2674   2.388       .  S
O2668      H2703   0.964       .  S
O2669     Zr2672   2.408       .  S
O2669     Zr2689   2.389       .  S
O2669      H2706   0.964   1_565  S
O2670     Zr2673   2.390       .  S
O2670     Zr2689   2.377       .  S
Zr2671     O2677   2.406       .  S
Zr2671     O2678   2.396       .  S
Zr2671     O2679   2.360       .  S
Zr2671     O2680   2.402       .  S
Zr2671     O2696   2.439       .  S
Zr2671     O2690   2.402       .  S
Zr2671     O2698   2.400       .  S
Zr2671     O2686   2.462       .  S
Zr2672     O2678   2.386       .  S
Zr2672     O2679   2.379       .  S
Zr2672     O2691   2.445   1_565  S
Zr2672     O2684   2.437   1_565  S
Zr2672     O2685   2.422       .  S
Zr2673     O2677   2.411       .  S
Zr2673     O2680   2.375       .  S
Zr2673     O2675   2.434       .  S
Zr2673     O2697   2.437       .  S
Zr2673     O2699   2.562       .  S
Zr2674     O2677   2.397       .  S
Zr2674     O2678   2.413       .  S
Zr2674     O2700   2.437       .  S
Zr2674     O2701   2.437       .  S
Zr2674     O2676   2.439   1_565  S
O2675      H2712   0.990       .  S
O2676      H2707   0.990       .  S
O2676      H2721   0.990       .  S
O2678      H2704   0.966       .  S
O2679     Zr2689   2.361       .  S
O2680     Zr2689   2.379       .  S
O2680      H2705   0.965       .  S
C2681      C3437   1.439       .  S
C2683      C3450   1.426       .  S
O2685      C2687   1.279       .  A
O2686      C2687   1.288       .  A
C2687      C3444   1.443       .  S
O2688     Zr2689   2.439       .  S
O2688      H2717   0.990       .  S
Zr2689     O2692   2.437       .  S
Zr2689     O2693   2.439       .  S
Zr2689     O2694   2.417       .  S
O2690      C2695   1.277       .  A
O2691      H2708   0.989       .  S
O2691      H2723   0.991       .  S
O2692      H2709   0.990       .  S
O2693      H2713   0.990       .  S
O2693      H2722   0.990       .  S
O2694      C2695   1.280       .  A
C2695      C3452   1.409       .  S
O2696      H2715   0.990       .  S
O2696      H2719   0.990       .  S
O2697      H2711   0.990       .  S
O2697      H2718   0.990       .  S
O2698      C2702   1.278       .  A
O2699      C2702   1.312       .  A
O2700      H2710   0.990       .  S
O2701      H2714   0.990       .  S
C2702      C3442   1.481       .  S
Zr2725     O2733   2.376       .  S
Zr2725     O2734   2.395       .  S
Zr2725     O2735   2.411       .  S
Zr2725     O2736   2.413       .  S
Zr2725     O2726   2.445       .  S
Zr2725     O2727   2.452       .  S
Zr2725     O2728   2.448       .  S
Zr2725     O2731   2.379       .  S
O2726      H2782   0.990       .  S
O2726      H2790   0.990       .  S
O2727      C2747   1.286       .  A
O2728      C2749   1.282       .  A
O2729     Zr2739   2.575       .  S
O2729      C2748   1.310       .  A
O2730     Zr2738   2.400       .  S
O2730      C2749   1.274       .  A
O2731      C2748   1.265       .  A
O2732     Zr2740   2.428       .  S
O2732      C2747   1.281       .  A
O2733     Zr2738   2.401       .  S
O2733     Zr2740   2.389       .  S
O2734     Zr2739   2.387       .  S
O2734     Zr2740   2.386       .  S
O2734      H2769   0.964       .  S
O2735     Zr2738   2.409       .  S
O2735     Zr2755   2.392       .  S
O2735      H2772   0.964       .  S
O2736     Zr2739   2.388       .  S
O2736     Zr2755   2.372       .  S
Zr2737     O2743   2.406       .  S
Zr2737     O2744   2.394       .  S
Zr2737     O2745   2.361       .  S
Zr2737     O2746   2.401       .  S
Zr2737     O2762   2.440       .  S
Zr2737     O2756   2.399       .  S
Zr2737     O2764   2.392       .  S
Zr2737     O2752   2.454       .  S
Zr2738     O2744   2.386       .  S
Zr2738     O2745   2.376       .  S
Zr2738     O2757   2.446       .  S
Zr2738     O2750   2.438       .  S
Zr2738     O2751   2.431       .  S
Zr2739     O2743   2.413       .  S
Zr2739     O2746   2.375       .  S
Zr2739     O2741   2.434       .  S
Zr2739     O2763   2.436       .  S
Zr2739     O2765   2.565       .  S
Zr2740     O2743   2.399       .  S
Zr2740     O2744   2.416       .  S
Zr2740     O2766   2.435       .  S
Zr2740     O2767   2.436       .  S
Zr2740     O2742   2.439       .  S
O2741      H2778   0.990       .  S
O2742      H2773   0.990       .  S
O2742      H2787   0.990       .  S
O2744      H2770   0.966       .  S
O2745     Zr2755   2.364       .  S
O2746     Zr2755   2.377       .  S
O2746      H2771   0.965       .  S
C2747      C3425   1.441       .  S
C2748      C3433   1.476       .  S
C2749      C3429   1.424       .  S
O2750      H2786   0.988       .  S
O2751      C2753   1.280       .  A
O2752      C2753   1.287       .  A
C2753      C3428   1.444       .  S
O2754     Zr2755   2.439       .  S
O2754      H2783   0.990       .  S
Zr2755     O2758   2.436       .  S
Zr2755     O2759   2.439       .  S
Zr2755     O2760   2.414       .  S
O2756      C2761   1.276       .  A
O2757      H2774   0.989       .  S
O2757      H2789   0.991       .  S
O2758      H2775   0.990       .  S
O2759      H2779   0.990       .  S
O2759      H2788   0.990       .  S
O2760      C2761   1.279       .  A
C2761      C3431   1.408       .  S
O2762      H2781   0.990       .  S
O2762      H2785   0.990       .  S
O2763      H2777   0.990       .  S
O2763      H2784   0.990       .  S
O2764      C2768   1.276       .  A
O2765      C2768   1.312       .  A
O2766      H2776   0.990       .  S
O2767      H2780   0.990       .  S
C2768      C3436   1.479       .  S
Zr2791     O2799   2.375       .  S
Zr2791     O2800   2.397       .  S
Zr2791     O2801   2.408       .  S
Zr2791     O2802   2.418       .  S
O2792      H2848   0.990       .  S
O2792      H2856   0.991       .  S
O2793      C2813   1.286       .  A
O2794      C2815   1.283       .  A
O2795     Zr2805   2.571       .  S
O2795      C2814   1.309       .  A
O2796      C2815   1.275       .  A
O2798     Zr2806   2.426       .  S
O2799     Zr2804   2.398       .  S
O2799     Zr2806   2.389       .  S
O2800     Zr2805   2.387       .  S
O2800     Zr2806   2.385       .  S
O2800      H2835   0.964       .  S
O2801     Zr2804   2.409       .  S
O2801     Zr2821   2.393       .  S
O2801      H2838   0.965       .  S
O2802     Zr2805   2.391       .  S
O2802     Zr2821   2.375       .  S
Zr2803     O2809   2.405       .  S
Zr2803     O2810   2.391       .  S
Zr2803     O2811   2.362       .  S
Zr2803     O2812   2.403       .  S
Zr2803     O2828   2.438       .  S
Zr2803     O2822   2.400       .  S
Zr2803     O2830   2.394       .  S
Zr2803     O2818   2.457       .  S
Zr2804     O2810   2.384       .  S
Zr2804     O2811   2.381       .  S
Zr2804     O2823   2.446       .  S
Zr2804     O2816   2.435       .  S
Zr2804     O2817   2.422       .  S
Zr2805     O2809   2.408       .  S
Zr2805     O2812   2.376       .  S
Zr2805     O2807   2.435       .  S
Zr2805     O2829   2.437       .  S
Zr2805     O2831   2.565       .  S
Zr2806     O2809   2.397       .  S
Zr2806     O2810   2.413       .  S
Zr2806     O2832   2.435       .  S
Zr2806     O2833   2.439       .  S
Zr2806     O2808   2.439       .  S
O2807      H2844   0.990       .  S
O2808      H2839   0.990       .  S
O2808      H2853   0.990       .  S
O2810      H2836   0.965       .  S
O2811     Zr2821   2.366       .  S
O2812     Zr2821   2.379       .  S
O2812      H2837   0.965       .  S
C2813      C3418   1.441       .  S
C2815      C3430   1.424       .  S
O2816      H2852   0.988       .  S
O2817      C2819   1.279       .  A
O2818      C2819   1.288       .  A
C2819      C3424   1.441       .  S
O2820     Zr2821   2.439       .  S
O2820      H2849   0.991       .  S
Zr2821     O2824   2.436       .  S
Zr2821     O2825   2.440       .  S
Zr2821     O2826   2.412       .  S
O2822      C2827   1.277       .  A
O2823      H2840   0.990       .  S
O2823      H2855   0.991       .  S
O2824      H2841   0.990       .  S
O2825      H2845   0.990       .  S
O2825      H2854   0.990       .  S
O2826      C2827   1.279       .  A
C2827      C3432   1.408       .  S
O2828      H2847   0.990       .  S
O2828      H2851   0.990       .  S
O2829      H2843   0.990       .  S
O2829      H2850   0.990       .  S
O2830      C2834   1.277       .  A
O2831      C2834   1.312       .  A
O2832      H2842   0.990       .  S
O2833      H2846   0.990       .  S
C2834      C3421   1.479       .  S
Zr2857     O2858   2.446       .  S
Zr2857     O2859   2.451       .  S
Zr2857     O2860   2.449       .  S
Zr2857     O2863   2.376       .  S
O2858      H2914   0.991       .  S
O2858      H2922   0.991       .  S
O2859      C2879   1.286       .  A
O2860      C2881   1.282       .  A
O2861     Zr2871   2.574       .  S
O2862      C2881   1.273       .  A
O2863      C2880   1.265       .  A
O2864      C2879   1.282       .  A
O2865     Zr2870   2.400       .  S
O2865     Zr2872   2.389       .  S
O2866     Zr2871   2.389       .  S
O2866     Zr2872   2.387       .  S
O2866      H2901   0.964       .  S
O2867     Zr2870   2.406       .  S
O2867     Zr2887   2.393       .  S
O2868     Zr2871   2.390       .  S
O2868     Zr2887   2.377       .  S
Zr2869     O2875   2.403       .  S
Zr2869     O2876   2.393       .  S
Zr2869     O2877   2.361       .  S
Zr2869     O2878   2.402       .  S
Zr2869     O2894   2.437       .  S
Zr2869     O2888   2.397       .  S
Zr2869     O2896   2.397       .  S
Zr2869     O2884   2.459       .  S
Zr2870     O2876   2.384       .  S
Zr2870     O2877   2.378       .  S
Zr2870     O2889   2.447       .  S
Zr2870     O2882   2.433       .  S
Zr2870     O2883   2.422       .  S
Zr2871     O2875   2.409       .  S
Zr2871     O2878   2.377       .  S
Zr2871     O2873   2.434       .  S
Zr2871     O2895   2.436       .  S
Zr2871     O2897   2.563       .  S
Zr2872     O2875   2.397       .  S
Zr2872     O2876   2.417       .  S
Zr2872     O2898   2.434       .  S
Zr2872     O2899   2.438       .  S
Zr2872     O2874   2.441       .  S
O2873      H2910   0.990       .  S
O2874      H2905   0.990       .  S
O2876      H2902   0.965       .  S
O2877     Zr2887   2.364       .  S
O2878     Zr2887   2.379       .  S
O2878      H2903   0.965       .  S
C2879      C3427   1.443       .  S
C2880      C3422   1.475       .  S
C2881      C3413   1.425       .  S
O2883      C2885   1.278       .  A
O2884      C2885   1.288       .  A
C2885      C3445   1.442       .  S
O2886     Zr2887   2.439       .  S
O2886      H2915   0.990       .  S
Zr2887     O2890   2.436       .  S
Zr2887     O2891   2.440       .  S
Zr2887     O2892   2.419       .  S
O2888      C2893   1.276       .  A
O2889      H2906   0.990       .  S
O2889      H2921   0.991       .  S
O2890      H2907   0.990       .  S
O2891      H2911   0.990       .  S
O2891      H2920   0.990       .  S
O2892      C2893   1.280       .  A
C2893      C3416   1.408       .  S
O2894      H2913   0.990       .  S
O2894      H2917   0.990       .  S
O2895      H2909   0.990       .  S
O2895      H2916   0.990       .  S
O2896      C2900   1.277       .  A
O2897      C2900   1.312       .  A
O2898      H2908   0.990       .  S
O2899      H2912   0.990       .  S
C2900      C3420   1.480       .  S
Zr2923     O2931   2.375       .  S
Zr2923     O2932   2.395       .  S
Zr2923     O2933   2.411       .  S
Zr2923     O2934   2.420       .  S
Zr2923     O2924   2.445       .  S
Zr2923     O2925   2.454       .  S
Zr2923     O2926   2.452       .  S
Zr2923     O2929   2.379       .  S
O2924      H2980   0.990       .  S
O2924      H2988   0.990       .  S
O2925      C2945   1.286       .  A
O2926      C2947   1.283       .  A
O2927     Zr2937   2.574       .  S
O2927      C2946   1.310       .  A
O2928     Zr2936   2.399       .  S
O2928      C2947   1.274       .  A
O2929      C2946   1.265       .  A
O2930     Zr2938   2.426       .  S
O2930      C2945   1.281       .  A
O2931     Zr2936   2.398       .  S
O2931     Zr2938   2.389       .  S
O2932     Zr2937   2.389       .  S
O2932     Zr2938   2.388       .  S
O2932      H2967   0.964       .  S
O2933     Zr2936   2.408       .  S
O2933     Zr2953   2.392       .  S
O2933      H2970   0.964       .  S
O2934     Zr2937   2.391       .  S
O2934     Zr2953   2.378       .  S
Zr2935     O2941   2.405       .  S
Zr2935     O2942   2.393       .  S
Zr2935     O2943   2.362       .  S
Zr2935     O2944   2.402       .  S
Zr2935     O2960   2.438       .  S
Zr2935     O2954   2.397       .  S
Zr2935     O2962   2.399       .  S
Zr2935     O2950   2.460       .  S
Zr2936     O2942   2.386       .  S
Zr2936     O2943   2.379       .  S
Zr2936     O2955   2.446       .  S
Zr2936     O2948   2.433       .  S
Zr2936     O2949   2.423       .  S
Zr2937     O2941   2.412       .  S
Zr2937     O2944   2.375       .  S
Zr2937     O2939   2.435       .  S
Zr2937     O2961   2.437   1_554  S
Zr2937     O2963   2.563       .  S
Zr2938     O2941   2.399       .  S
Zr2938     O2942   2.414       .  S
Zr2938     O2964   2.437       .  S
Zr2938     O2965   2.437       .  S
Zr2938     O2940   2.439       .  S
O2939      H2976   0.990       .  S
O2940      H2971   0.990       .  S
O2940      H2985   0.990       .  S
O2942      H2968   0.966       .  S
O2943     Zr2953   2.362       .  S
O2944     Zr2953   2.380       .  S
O2944      H2969   0.965       .  S
C2945      C3443   1.441   1_554  S
C2946      C3455   1.476       .  S
C2947      C3414   1.424       .  S
O2948      H2984   0.988       .  S
O2949      C2951   1.279       .  A
O2950      C2951   1.288       .  A
C2951      C3417   1.443       .  S
O2952     Zr2953   2.439       .  S
O2952      H2981   0.990       .  S
Zr2953     O2956   2.436       .  S
Zr2953     O2957   2.440       .  S
Zr2953     O2958   2.420       .  S
O2954      C2959   1.276       .  A
O2955      H2972   0.989       .  S
O2955      H2987   0.991       .  S
O2956      H2973   0.990       .  S
O2957      H2977   0.990       .  S
O2957      H2986   0.990       .  S
O2958      C2959   1.280       .  A
C2959      C3415   1.408       .  S
O2960      H2979   0.990       .  S
O2960      H2983   0.990       .  S
O2961      H2975   0.990       .  S
O2961      H2982   0.990       .  S
O2962      C2966   1.277       .  A
O2963      C2966   1.312       .  A
O2964      H2974   0.990   1_554  S
O2965      H2978   0.990       .  S
C2966      C3454   1.481       .  S
Zr2989     O2997   2.378       .  S
Zr2989     O2998   2.393       .  S
Zr2989     O2999   2.408       .  S
Zr2989     O3000   2.416       .  S
Zr2989     O2990   2.446       .  S
Zr2989     O2991   2.454       .  S
Zr2989     O2992   2.443       .  S
Zr2989     O2995   2.376       .  S
O2990      H3046   0.990       .  S
O2990      H3054   0.991       .  S
O2991      C3011   1.287       .  A
O2992      C3013   1.282       .  A
O2993     Zr3003   2.576       .  S
O2993      C3012   1.311       .  A
O2994     Zr3002   2.401       .  S
O2994      C3013   1.274       .  A
O2995      C3012   1.265       .  A
O2996     Zr3004   2.431       .  S
O2996      C3011   1.282       .  A
O2997     Zr3002   2.399       .  S
O2997     Zr3004   2.390       .  S
O2998     Zr3003   2.385       .  S
O2998     Zr3004   2.385       .  S
O2998      H3033   0.964       .  S
O2999     Zr3002   2.405       .  S
O2999     Zr3019   2.392       .  S
O2999      H3036   0.965       .  S
O3000     Zr3003   2.388       .  S
O3000     Zr3019   2.377       .  S
Zr3001     O3007   2.404       .  S
Zr3001     O3008   2.395       .  S
Zr3001     O3009   2.362       .  S
Zr3001     O3010   2.402       .  S
Zr3001     O3026   2.440       .  S
Zr3001     O3020   2.405       .  S
Zr3001     O3028   2.402       .  S
Zr3001     O3016   2.460       .  S
Zr3002     O3008   2.384       .  S
Zr3002     O3009   2.379       .  S
Zr3002     O3021   2.446       .  S
Zr3002     O3014   2.436       .  S
Zr3002     O3015   2.423       .  S
Zr3003     O3007   2.410       .  S
Zr3003     O3010   2.376       .  S
Zr3003     O3005   2.434       .  S
Zr3003     O3027   2.434       .  S
Zr3003     O3029   2.562       .  S
Zr3004     O3007   2.397       .  S
Zr3004     O3008   2.414       .  S
Zr3004     O3030   2.434       .  S
Zr3004     O3031   2.439       .  S
Zr3004     O3006   2.439       .  S
O3005      H3042   0.990       .  S
O3006      H3037   0.990       .  S
O3006      H3051   0.990       .  S
O3008      H3034   0.965       .  S
O3009     Zr3019   2.363       .  S
O3010     Zr3019   2.379       .  S
O3010      H3035   0.965       .  S
C3011      C3447   1.443       .  S
C3012      C3441   1.477       .  S
C3013      C3410   1.424       .  S
O3014      H3050   0.988       .  S
O3015      C3017   1.279       .  A
O3016      C3017   1.288       .  A
C3017      C3407   1.443       .  S
O3018     Zr3019   2.441       .  S
O3018      H3047   0.990       .  S
Zr3019     O3022   2.436       .  S
Zr3019     O3023   2.440       .  S
Zr3019     O3024   2.423       .  S
O3020      C3025   1.278       .  A
O3021      H3038   0.990       .  S
O3021      H3053   0.991       .  S
O3022      H3039   0.990       .  S
O3023      H3043   0.990       .  S
O3023      H3052   0.990       .  S
O3024      C3025   1.281       .  A
C3025      C3411   1.414       .  S
O3026      H3045   0.990       .  S
O3026      H3049   0.990       .  S
O3027      H3041   0.990       .  S
O3027      H3048   0.990       .  S
O3028      C3032   1.278       .  A
O3029      C3032   1.312       .  A
O3030      H3040   0.990       .  S
O3031      H3044   0.990       .  S
C3032      C3440   1.482       .  S
Zr3055     O3063   2.377       .  S
Zr3055     O3056   2.447       .  S
Zr3055     O3057   2.453       .  S
Zr3055     O3058   2.448       .  S
Zr3055     O3061   2.377       .  S
O3056      H3112   0.990       .  S
O3056      H3120   0.991       .  S
O3057      C3077   1.286       .  A
O3058      C3079   1.282       .  A
O3059     Zr3069   2.575       .  S
O3060      C3079   1.273       .  A
O3061      C3078   1.265       .  A
O3062      C3077   1.281       .  A
O3064     Zr3069   2.388       .  S
O3064     Zr3070   2.387       .  S
O3064      H3099   0.964       .  S
O3065     Zr3068   2.409       .  S
O3065     Zr3085   2.395   1_455  S
O3066     Zr3069   2.387       .  S
O3066     Zr3085   2.374       .  S
Zr3067     O3073   2.407       .  S
Zr3067     O3074   2.393       .  S
Zr3067     O3075   2.360       .  S
Zr3067     O3076   2.400       .  S
Zr3067     O3092   2.440       .  S
Zr3067     O3086   2.405       .  S
Zr3067     O3094   2.394       .  S
Zr3067     O3082   2.454       .  S
Zr3068     O3074   2.382   1_455  S
Zr3068     O3075   2.378   1_455  S
Zr3068     O3087   2.445       .  S
Zr3068     O3080   2.435       .  S
Zr3068     O3081   2.424   1_455  S
Zr3069     O3073   2.410       .  S
Zr3069     O3076   2.378       .  S
Zr3069     O3071   2.434       .  S
Zr3069     O3093   2.435       .  S
Zr3069     O3095   2.562       .  S
Zr3070     O3073   2.401       .  S
Zr3070     O3074   2.415       .  S
Zr3070     O3096   2.436       .  S
Zr3070     O3097   2.436       .  S
Zr3070     O3072   2.441   1_655  S
O3071      H3108   0.990       .  S
O3072      H3103   0.990       .  S
O3074      H3100   0.966       .  S
O3075     Zr3085   2.365       .  S
O3076     Zr3085   2.378       .  S
O3076      H3101   0.965       .  S
C3077      C3401   1.442       .  S
C3078      C3403   1.477       .  S
C3079      C3409   1.423       .  S
O3081      C3083   1.279       .  A
O3082      C3083   1.287       .  A
C3083      C3438   1.440       .  S
O3084     Zr3085   2.440       .  S
O3084      H3113   0.990       .  S
Zr3085     O3088   2.436       .  S
Zr3085     O3089   2.440       .  S
Zr3085     O3090   2.420       .  S
O3086      C3091   1.278       .  A
O3087      H3104   0.990       .  S
O3088      H3105   0.990       .  S
O3089      H3109   0.990       .  S
O3089      H3118   0.990       .  S
O3090      C3091   1.281       .  A
C3091      C3412   1.414       .  S
O3092      H3111   0.990       .  S
O3092      H3115   0.990       .  S
O3093      H3107   0.990       .  S
O3093      H3114   0.990       .  S
O3094      C3098   1.276       .  A
O3095      C3098   1.312       .  A
O3096      H3106   0.990       .  S
O3097      H3110   0.990       .  S
C3098      C3406   1.478       .  S
Zr3121     O3129   2.377       .  S
Zr3121     O3122   2.448       .  S
Zr3121     O3123   2.452       .  S
Zr3121     O3124   2.446       .  S
Zr3121     O3127   2.380       .  S
O3122      H3178   0.991       .  S
O3122      H3186   0.991       .  S
O3123      C3143   1.286       .  A
O3124      C3145   1.281       .  A
O3125     Zr3135   2.579       .  S
O3126      C3145   1.273       .  A
O3127      C3144   1.265       .  A
O3128      C3143   1.281       .  A
O3130     Zr3135   2.387       .  S
O3130     Zr3136   2.388       .  S
O3130      H3165   0.964   1_655  S
O3131     Zr3134   2.408       .  S
O3131     Zr3151   2.391   1_455  S
O3132     Zr3135   2.391       .  S
O3132     Zr3151   2.377       .  S
Zr3133     O3139   2.407       .  S
Zr3133     O3140   2.393       .  S
Zr3133     O3141   2.361       .  S
Zr3133     O3142   2.402       .  S
Zr3133     O3158   2.439       .  S
Zr3133     O3152   2.397       .  S
Zr3133     O3160   2.395       .  S
Zr3133     O3148   2.456       .  S
Zr3134     O3140   2.385   1_455  S
Zr3134     O3141   2.377   1_455  S
Zr3134     O3153   2.446       .  S
Zr3134     O3146   2.436       .  S
Zr3134     O3147   2.429   1_455  S
Zr3135     O3139   2.413       .  S
Zr3135     O3142   2.376       .  S
Zr3135     O3137   2.433       .  S
Zr3135     O3159   2.436       .  S
Zr3135     O3161   2.566       .  S
Zr3136     O3139   2.398       .  S
Zr3136     O3140   2.413       .  S
Zr3136     O3162   2.437       .  S
Zr3136     O3163   2.436       .  S
Zr3136     O3138   2.438   1_655  S
O3137      H3174   0.990       .  S
O3138      H3169   0.990       .  S
O3140      H3166   0.966       .  S
O3141     Zr3151   2.362       .  S
O3142     Zr3151   2.378       .  S
O3142      H3167   0.965       .  S
C3143      C3391   1.440       .  S
C3144      C3397   1.473       .  S
C3145      C3393   1.423       .  S
O3147      C3149   1.280       .  A
O3148      C3149   1.287       .  A
C3149      C3426   1.443       .  S
O3150     Zr3151   2.438       .  S
O3150      H3179   0.990       .  S
Zr3151     O3154   2.438       .  S
Zr3151     O3155   2.438       .  S
Zr3151     O3156   2.417       .  S
O3152      C3157   1.276       .  A
O3153      H3170   0.989       .  S
O3154      H3171   0.990       .  S
O3155      H3175   0.990       .  S
O3155      H3184   0.990       .  S
O3156      C3157   1.280       .  A
C3157      C3396   1.408       .  S
O3158      H3177   0.990       .  S
O3158      H3181   0.990       .  S
O3159      H3173   0.990       .  S
O3159      H3180   0.990       .  S
O3160      C3164   1.277       .  A
O3161      C3164   1.313       .  A
O3162      H3172   0.990       .  S
O3163      H3176   0.990       .  S
C3164      C3400   1.480       .  S
Zr3187     O3188   2.448       .  S
Zr3187     O3189   2.448       .  S
Zr3187     O3190   2.445       .  S
Zr3187     O3193   2.376       .  S
O3188      H3244   0.991       .  S
O3188      H3252   0.991       .  S
O3189      C3209   1.286       .  A
O3190      C3211   1.281       .  A
O3191     Zr3201   2.575       .  S
O3192      C3211   1.273       .  A
O3193      C3210   1.264       .  A
O3194      C3209   1.282       .  A
O3195     Zr3200   2.400       .  S
O3195     Zr3202   2.390       .  S
O3196     Zr3201   2.387       .  S
O3196     Zr3202   2.387       .  S
O3196      H3231   0.964       .  S
O3197     Zr3200   2.408       .  S
O3197     Zr3217   2.392       .  S
O3198     Zr3201   2.390       .  S
O3198     Zr3217   2.377       .  S
Zr3199     O3205   2.406       .  S
Zr3199     O3206   2.394       .  S
Zr3199     O3207   2.359       .  S
Zr3199     O3208   2.402       .  S
Zr3199     O3224   2.438       .  S
Zr3199     O3218   2.396       .  S
Zr3199     O3226   2.395       .  S
Zr3199     O3214   2.462       .  S
Zr3200     O3206   2.387       .  S
Zr3200     O3207   2.379       .  S
Zr3200     O3219   2.446       .  S
Zr3200     O3212   2.435       .  S
Zr3200     O3213   2.423       .  S
Zr3201     O3205   2.412       .  S
Zr3201     O3208   2.376       .  S
Zr3201     O3203   2.434       .  S
Zr3201     O3225   2.437       .  S
Zr3201     O3227   2.563       .  S
Zr3202     O3205   2.398       .  S
Zr3202     O3206   2.415       .  S
Zr3202     O3228   2.436       .  S
Zr3202     O3229   2.437       .  S
Zr3202     O3204   2.439       .  S
O3203      H3240   0.990       .  S
O3204      H3235   0.990       .  S
O3206      H3232   0.966       .  S
O3207     Zr3217   2.361       .  S
O3208     Zr3217   2.377       .  S
O3208      H3233   0.965       .  S
C3209      C3423   1.440       .  S
C3210      C3435   1.475       .  S
C3211      C3394   1.423       .  S
O3213      C3215   1.279       .  A
O3214      C3215   1.288       .  A
C3215      C3389   1.444       .  S
O3216     Zr3217   2.438       .  S
O3216      H3245   0.990       .  S
Zr3217     O3220   2.435       .  S
Zr3217     O3221   2.440       .  S
Zr3217     O3222   2.417       .  S
O3218      C3223   1.276       .  A
O3219      H3236   0.990       .  S
O3219      H3251   0.991       .  S
O3220      H3237   0.990       .  S
O3221      H3241   0.990       .  S
O3221      H3250   0.990       .  S
O3222      C3223   1.280       .  A
C3223      C3395   1.408       .  S
O3224      H3243   0.990       .  S
O3224      H3247   0.990       .  S
O3225      H3239   0.990       .  S
O3225      H3246   0.990       .  S
O3226      C3230   1.276       .  A
O3227      C3230   1.312       .  A
O3228      H3238   0.990       .  S
O3229      H3242   0.990       .  S
C3230      C3434   1.480       .  S
Zr3253     O3254   2.447       .  S
Zr3253     O3255   2.453       .  S
Zr3253     O3256   2.447       .  S
Zr3253     O3259   2.373       .  S
O3254      H3310   0.990       .  S
O3254      H3318   0.991       .  S
O3255      C3275   1.286       .  A
O3256      C3277   1.282       .  A
O3257     Zr3267   2.574       .  S
O3257      C3276   1.310       .  A
O3258      C3277   1.274       .  A
O3260      C3275   1.281       .  A
O3261     Zr3266   2.396   1_545  S
O3261     Zr3268   2.386   1_545  S
O3262     Zr3267   2.390       .  S
O3262     Zr3268   2.389       .  S
O3262      H3297   0.964       .  S
O3263     Zr3266   2.408       .  S
O3263     Zr3283   2.390       .  S
O3263      H3300   0.964   1_565  S
O3264     Zr3267   2.389       .  S
O3264     Zr3283   2.377       .  S
Zr3265     O3271   2.407       .  S
Zr3265     O3272   2.393       .  S
Zr3265     O3273   2.361       .  S
Zr3265     O3274   2.402       .  S
Zr3265     O3290   2.439       .  S
Zr3265     O3284   2.401       .  S
Zr3265     O3292   2.401       .  S
Zr3265     O3280   2.463       .  S
Zr3266     O3272   2.383       .  S
Zr3266     O3273   2.378       .  S
Zr3266     O3285   2.444   1_565  S
Zr3266     O3278   2.433   1_565  S
Zr3266     O3279   2.422       .  S
Zr3267     O3271   2.412       .  S
Zr3267     O3274   2.376       .  S
Zr3267     O3269   2.433       .  S
Zr3267     O3291   2.438       .  S
Zr3267     O3293   2.562       .  S
Zr3268     O3271   2.401       .  S
Zr3268     O3272   2.416       .  S
Zr3268     O3294   2.433       .  S
Zr3268     O3295   2.439       .  S
Zr3268     O3270   2.442   1_565  S
O3269      H3306   0.990       .  S
O3270      H3301   0.990       .  S
O3270      H3315   0.990       .  S
O3272      H3298   0.965       .  S
O3273     Zr3283   2.362       .  S
O3274     Zr3283   2.379       .  S
O3274      H3299   0.965       .  S
C3275      C3408   1.441       .  S
C3277      C3386   1.423       .  S
O3278      H3314   0.988       .  S
O3279      C3281   1.279       .  A
O3280      C3281   1.289       .  A
C3281      C3392   1.442       .  S
O3282     Zr3283   2.439       .  S
O3282      H3311   0.990       .  S
Zr3283     O3286   2.437       .  S
Zr3283     O3287   2.439       .  S
Zr3283     O3288   2.418       .  S
O3284      C3289   1.277       .  A
O3285      H3302   0.989       .  S
O3285      H3317   0.991       .  S
O3286      H3303   0.990       .  S
O3287      H3307   0.990       .  S
O3287      H3316   0.990       .  S
O3288      C3289   1.280       .  A
C3289      C3388   1.410       .  S
O3290      H3309   0.990       .  S
O3290      H3313   0.990       .  S
O3291      H3305   0.990       .  S
O3291      H3312   0.990       .  S
O3292      C3296   1.278       .  A
O3293      C3296   1.312       .  A
O3294      H3304   0.990       .  S
O3295      H3308   0.990       .  S
C3296      C3404   1.481       .  S
Zr3319     O3327   2.378       .  S
Zr3319     O3328   2.395       .  S
Zr3319     O3329   2.410       .  S
Zr3319     O3330   2.415       .  S
Zr3319     O3320   2.446       .  S
Zr3319     O3321   2.453       .  S
Zr3319     O3322   2.441       .  S
Zr3319     O3325   2.378       .  S
O3320      H3376   0.990       .  S
O3320      H3384   0.991       .  S
O3321      C3341   1.286       .  A
O3322      C3343   1.281       .  A
O3323     Zr3333   2.574       .  S
O3323      C3342   1.310       .  A
O3324     Zr3332   2.397       .  S
O3324      C3343   1.274       .  A
O3325      C3342   1.266       .  A
O3326     Zr3334   2.434       .  S
O3326      C3341   1.282       .  A
O3327     Zr3332   2.400       .  S
O3327     Zr3334   2.389       .  S
O3328     Zr3333   2.385       .  S
O3328     Zr3334   2.385       .  S
O3328      H3363   0.964       .  S
O3329     Zr3332   2.407       .  S
O3329     Zr3349   2.395       .  S
O3329      H3366   0.965       .  S
O3330     Zr3333   2.389       .  S
O3330     Zr3349   2.377       .  S
Zr3331     O3337   2.407       .  S
Zr3331     O3338   2.395       .  S
Zr3331     O3339   2.361       .  S
Zr3331     O3340   2.403       .  S
Zr3331     O3356   2.440       .  S
Zr3331     O3350   2.402       .  S
Zr3331     O3358   2.392       .  S
Zr3331     O3346   2.463       .  S
Zr3332     O3338   2.385       .  S
Zr3332     O3339   2.379       .  S
Zr3332     O3351   2.446       .  S
Zr3332     O3344   2.436       .  S
Zr3332     O3345   2.423       .  S
Zr3333     O3337   2.410       .  S
Zr3333     O3340   2.375       .  S
Zr3333     O3335   2.433       .  S
Zr3333     O3357   2.436       .  S
Zr3333     O3359   2.563       .  S
Zr3334     O3337   2.397       .  S
Zr3334     O3338   2.417       .  S
Zr3334     O3360   2.436       .  S
Zr3334     O3361   2.435       .  S
Zr3334     O3336   2.438       .  S
O3335      H3372   0.990       .  S
O3336      H3367   0.991       .  S
O3336      H3381   0.990       .  S
O3338      H3364   0.966       .  S
O3339     Zr3349   2.364       .  S
O3340     Zr3349   2.378       .  S
O3340      H3365   0.965       .  S
C3341      C3390   1.442       .  S
C3342      C3399   1.476       .  S
C3343      C3385   1.422       .  S
O3344      H3380   0.988       .  S
O3345      C3347   1.279       .  A
O3346      C3347   1.288       .  A
C3347      C3402   1.444       .  S
O3348     Zr3349   2.439       .  S
O3348      H3377   0.990       .  S
Zr3349     O3352   2.435       .  S
Zr3349     O3353   2.440       .  S
Zr3349     O3354   2.418       .  S
O3350      C3355   1.277       .  A
O3351      H3368   0.989       .  S
O3351      H3383   0.991       .  S
O3352      H3369   0.990       .  S
O3353      H3373   0.990       .  S
O3353      H3382   0.990       .  S
O3354      C3355   1.280       .  A
C3355      C3387   1.411       .  S
O3356      H3375   0.990       .  S
O3356      H3379   0.990       .  S
O3357      H3371   0.990       .  S
O3357      H3378   0.990       .  S
O3358      C3362   1.276       .  A
O3359      C3362   1.312       .  A
O3360      H3370   0.990       .  S
O3361      H3374   0.990       .  S
C3362      C3398   1.477       .  S
C3385      C3386   1.198       .  T
C3387      C3388   1.192       .  T
C3389      C3390   1.211       .  T
C3391      C3392   1.210       .  T
C3393      C3394   1.199       .  T
C3395      C3396   1.190       .  T
C3397      C3398   1.233       .  T
C3399      C3400   1.234       .  T
C3401      C3402   1.211       .  T
C3403      C3404   1.235       .  T
C3405      C3406   1.233       .  T
C3407      C3408   1.210       .  T
C3409      C3410   1.199       .  T
C3411      C3412   1.194       .  T
C3413      C3414   1.200       .  T
C3415      C3416   1.190       .  T
C3417      C3418   1.210       .  T
C3419      C3420   1.234       .  T
C3421      C3422   1.234       .  T
C3423      C3424   1.210       .  T
C3425      C3426   1.211       .  T
C3427      C3428   1.211       .  T
C3429      C3430   1.200       .  T
C3431      C3432   1.190       .  T
C3433      C3434   1.234       .  T
C3435      C3436   1.234       .  T
C3437      C3438   1.209       .  T
C3439      C3440   1.235       .  T
C3441      C3442   1.235       .  T
C3443      C3444   1.210       .  T
C3445      C3446   1.210       .  T
C3447      C3448   1.211       .  T
C3449      C3450   1.201       .  T
C3451      C3452   1.191       .  T
C3453      C3454   1.235       .  T
C3455      C3456   1.234       .  T
