geometry optimzed in LAMMPS
_audit_creation_date              2020-11-30 
_audit_creation_method            'lammps2cif' 
_symmetry_space_group_name_H-M    'P1' 
_symmetry_Int_Tables_number       1 
_symmetry_cell_setting            triclinic 
loop_ 
_symmetry_equiv_pos_as_xyz 
  x,y,z 
_cell_length_a                    26.929025388053503 
_cell_length_b                    27.047108960883904 
_cell_length_c                    20.935246609021704 
_cell_angle_alpha                 88.67109302610265 
_cell_angle_beta                  91.0450138343119 
_cell_angle_gamma                 91.54102559906791 
loop_ 
_atom_site_label 
_atom_site_type_symbol 
_atom_site_fract_x 
_atom_site_fract_y 
_atom_site_fract_z 
_atom_site_charge 
C1          C  0.07879221  0.60141727  0.30429983     0.00220
C2          C  0.04353532  0.57503384  0.26861529     0.00220
C3          C  0.80617086  0.22658557  0.28371697     0.02790
C4          C  0.85558024  0.23895737  0.30739651    -0.13360
C5          C  0.88496640  0.20433439  0.34492295     0.00290
C6          C  0.86592371  0.15689115  0.35610118    -0.11890
C7          C  0.81662140  0.14437968  0.34270913     0.02780
C8          C  0.78712182  0.17871099  0.30491413    -0.11310
H9          H  0.87146602  0.27520687  0.29599057     0.08370
H10         H  0.88800402  0.13121321  0.38429762     0.05900
H11         H  0.74938910  0.16823529  0.29221096     0.05750
C12         C  0.80341588  0.23705608  0.16100637     0.02790
C13         C  0.78035450  0.19517676  0.12940004    -0.13360
C14         C  0.80637037  0.16588775  0.08458683     0.00290
C15         C  0.85458020  0.17981533  0.06903696    -0.11890
C16         C  0.87882956  0.22226161  0.09180555     0.02780
C17         C  0.85333894  0.25072756  0.13899761    -0.11310
H18         H  0.74282111  0.18473810  0.14143774     0.08370
H19         H  0.87264331  0.15808981  0.03360251     0.05900
H20         H  0.87269249  0.28214797  0.15990926     0.05750
O21         O  0.01638873  0.33626340  0.01421209    -0.82140
C22         C  0.09326895  0.18841799  0.38675641     0.97210
O23         O  0.09758596  0.23461751  0.39100291    -0.71260
O24         O  0.08007273  0.32189753  0.42783079    -0.74850
Al25       Al  0.08783739  0.26349524  0.96968339     1.48980
C26         C  0.05600957  0.33192081  0.37778128     0.92470
O27         O  0.93407936  0.26142380  0.40387126    -0.81070
O28         O  0.95429027  0.19688883  0.04096870    -0.74630
Al29       Al  0.97855183  0.29470998  0.45876950     1.90120
O30         O  0.95986613  0.18499589  0.40863072    -0.73700
O31         O  0.05541897  0.17626486  0.06004398    -0.73550
O32         O  0.06135967  0.16382224  0.42140883    -0.79210
O33         O  0.11849119  0.21102540  0.01398415    -0.77410
O34         O  0.02356748  0.24672540  0.96965599    -1.13540
O35         O  0.08032906  0.29169247  0.04735856    -0.72740
C36         C  0.05479417  0.32953484  0.04976713     0.97980
C37         C  0.93010808  0.21779008  0.38572974     0.94370
Al38       Al  0.00856156  0.18472295  0.98167869     1.55560
O39         O  0.01026852  0.32051454  0.37808122    -0.77360
C40         C  0.10223663  0.18717833  0.06095417     0.98540
C41         C  0.92805903  0.23339907  0.05704118     0.93420
O42         O  0.93812356  0.27602419  0.03336691    -0.82680
C43         C  0.78111293  0.25647764  0.22598406     0.00220
C44         C  0.74181404  0.29387133  0.23036032     0.00220
C45         C  0.71373117  0.31384704  0.29152959     0.02790
C46         C  0.66922489  0.28958791  0.31619140    -0.13360
C47         C  0.63226387  0.31558597  0.35167765     0.00290
C48         C  0.63898755  0.36615654  0.35984214    -0.11890
C49         C  0.68420802  0.38973738  0.34990680     0.02780
C50         C  0.72089510  0.36448010  0.31283468    -0.11310
H51         H  0.66322089  0.25103773  0.30643031     0.08370
H52         H  0.61114131  0.38626809  0.38445692     0.05900
H53         H  0.75466343  0.38450467  0.29973928     0.05750
C54         C  0.71640151  0.31983555  0.17138119     0.02790
C55         C  0.73000900  0.36877105  0.14837458    -0.13360
C56         C  0.69348986  0.39957302  0.11709365     0.00290
C57         C  0.64402436  0.38441231  0.11780180    -0.11890
C58         C  0.63388128  0.33457517  0.11882709     0.02780
C59         C  0.66916067  0.30213157  0.14859449    -0.11310
H60         H  0.76767628  0.38285205  0.15525069     0.08370
H61         H  0.61616105  0.40817298  0.09609769     0.05900
H62         H  0.66037599  0.26335995  0.15330724     0.05750
O63         O  0.80637722  0.51618743  0.41089564    -0.82140
C64         C  0.68504448  0.60327956  0.07765576     0.97210
O65         O  0.72973518  0.60211063  0.06233208    -0.71260
O66         O  0.80498588  0.57299986  0.00644362    -0.74850
Al67       Al  0.74434121  0.58863303  0.47572254     1.48980
C68         C  0.81444594  0.53977189  0.04669217     0.92470
O69         O  0.73328824  0.43022611  0.02309897    -0.81070
O70         O  0.66068214  0.45521549  0.42584880    -0.74630
Al71       Al  0.76561273  0.47733155  0.96707907     1.90120
O72         O  0.67345127  0.47442589  0.06055807    -0.73700
O73         O  0.64631131  0.55702752  0.40711200    -0.73550
O74         O  0.65337568  0.57359564  0.04803890    -0.79210
O75         O  0.68817095  0.61947755  0.44540175    -0.77410
O76         O  0.72303000  0.52638876  0.47718124    -1.13540
O77         O  0.75882300  0.57875308  0.38966743    -0.72740
C78         C  0.79849419  0.55731157  0.38211703     0.97980
C79         C  0.70287574  0.43832761  0.06669861     0.94370
Al80       Al  0.66117114  0.51529569  0.48503344     1.55560
O81         O  0.79852839  0.49642366  0.04053968    -0.77360
C82         C  0.66242261  0.60181710  0.40121790     0.98540
C83         C  0.69355211  0.43620993  0.38929247     0.93420
O84         O  0.73703569  0.45271799  0.39208699    -0.82680
C85         C  0.07811135  0.45717919  0.09332626     0.02790
C86         C  0.06156632  0.41678901  0.06063397    -0.13360
C87         C  0.07636847  0.37058321  0.08227589     0.00290
C88         C  0.11778506  0.36639427  0.12420011    -0.11890
C89         C  0.14210539  0.41013457  0.14284530     0.02780
C90         C  0.11269398  0.45108324  0.14361537    -0.11310
H91         H  0.03229044  0.42141236  0.02483306     0.08370
H92         H  0.13616198  0.33143347  0.63070464     0.05900
H93         H  0.12751551  0.48445837  0.16412567     0.05750
C94         C  0.08301414  0.44918959  0.35059037     0.02790
C95         C  0.06992809  0.40989098  0.30685450    -0.13360
C96         C  0.08488278  0.36124620  0.32643613     0.00290
C97         C  0.13376027  0.36747423  0.35169912    -0.11890
C98         C  0.13403558  0.40115181  0.40296549     0.02780
C99         C  0.09427248  0.43166959  0.41000462    -0.11550
H100        H  0.07136784  0.41778615  0.25627764     0.08370
H101        H  0.16168332  0.33956004  0.84878448     0.05900
H102        H  0.09192683  0.45453339  0.45127836     0.05750
C103        C  0.18300097  0.75401833  0.32901756     0.02790
C104        C  0.13136741  0.74440984  0.35130687    -0.13360
C105        C  0.10550109  0.77573759  0.39723979     0.00290
C106        C  0.13237635  0.81750274  0.41697475    -0.11890
C107        C  0.18121174  0.82884177  0.40027016     0.02780
C108        C  0.20663004  0.79712180  0.35746233    -0.11310
H109        H  0.11162444  0.71370761  0.33064147     0.08370
H110        H  0.11568520  0.84150988  0.45090684     0.05900
H111        H  0.24401445  0.80763798  0.34350366     0.05750
C112        C  0.18263834  0.76289334  0.20601899     0.02790
C113        C  0.13228587  0.75325382  0.18294019    -0.13360
C114        C  0.10452090  0.78879996  0.14471632     0.00290
C115        C  0.12573675  0.83512060  0.13230434    -0.11890
C116        C  0.17534112  0.84588491  0.14502205     0.02780
C117        C  0.20373729  0.81020732  0.18346668    -0.11310
H118        H  0.11378417  0.71912688  0.19694325     0.08370
H119        H  0.10467689  0.86144521  0.10373883     0.05900
H120        H  0.24190423  0.81952349  0.19632627     0.05750
O121        O  0.97833631  0.67515925  0.10161739    -0.82140
C122        C  0.88374325  0.81408738  0.44836783     0.97210
O123        O  0.86812524  0.80330334  0.50399376    -0.71260
O124        O  0.87687357  0.71490241  0.48623647    -0.74850
Al125      Al  0.89454649  0.74946818  0.05539293     1.48980
C126        C  0.90212513  0.67941667  0.47210154     0.92470
O127        O  0.03288739  0.72878064  0.44626624    -0.81070
O128        O  0.02689910  0.81424475  0.09267494    -0.74630
Al129      Al  0.99891805  0.70981925  0.02689188     1.90120
O130        O  0.03476521  0.80712394  0.46020845    -0.73700
O131        O  0.92733874  0.84856937  0.08192959    -0.73550
O132        O  0.93071868  0.82394145  0.44417879    -0.79210
O133        O  0.90958457  0.77995217  0.13130961    -0.77410
O134        O  0.95837210  0.75894505  0.03323369    -1.13540
O135        O  0.90087215  0.69357069  0.10231443    -0.72740
C136        C  0.93370923  0.66277646  0.10937244     0.97980
C137        C  0.05391843  0.76989563  0.43360760     0.94370
Al138      Al  0.97855508  0.81983683  0.02044475     1.55560
O139        O  0.94914379  0.67754179  0.48121751    -0.77360
C140        C  0.90299298  0.82450351  0.12624507     0.98540
C141        C  0.05730403  0.77897554  0.10574316     0.93420
O142        O  0.05214859  0.73794144  0.07806593    -0.82680
C143        C  0.20635065  0.73107600  0.26452070     0.00220
C144        C  0.24432271  0.69022218  0.25894806     0.00220
C145        C  0.27058208  0.66991896  0.19613414     0.02790
C146        C  0.25703936  0.62299593  0.16527261    -0.13360
C147        C  0.29241823  0.59360811  0.13031917     0.00290
C148        C  0.34119813  0.61119045  0.12895290    -0.11890
C149        C  0.35441675  0.65922302  0.14549967     0.02780
C150        C  0.31995348  0.68779546  0.18079210    -0.11310
H151        H  0.21947683  0.60948473  0.16866553     0.08370
H152        H  0.36822875  0.58975144  0.10476573     0.05900
H153        H  0.33214728  0.72374842  0.19765108     0.05750
C154        C  0.27260736  0.65961338  0.31465948     0.02790
C155        C  0.26754411  0.60581015  0.32150727    -0.13360
C156        C  0.30017076  0.57658931  0.36236833     0.00290
C157        C  0.34563475  0.59764778  0.37823441    -0.11890
C158        C  0.35011944  0.64822844  0.38284121     0.02780
C159        C  0.31399056  0.67984722  0.35102708    -0.11310
H160        H  0.23645971  0.58729721  0.29886356     0.08370
H161        H  0.37270127  0.57528008  0.40398022     0.05900
H162        H  0.31914798  0.71958819  0.35262147     0.05750
O163        O  0.19206140  0.45628726  0.43579977    -0.82140
C164        C  0.32338461  0.37992178  0.09808985     0.97210
O165        O  0.30134009  0.35858174  0.05388274    -0.71260
O166        O  0.22079774  0.39282298  0.10292310    -0.74850
Al167      Al  0.24359249  0.38200597  0.52032387     1.48980
C168        C  0.18593736  0.42279573  0.10615157     0.92470
O169        O  0.23866405  0.53546552  0.07173530    -0.81070
O170        O  0.31904479  0.50353399  0.42827757    -0.74630
Al171      Al  0.21741271  0.49240953  0.00355650     1.90120
O172        O  0.31829681  0.52326686  0.06393940    -0.73700
O173        O  0.33639371  0.40468579  0.44884001    -0.73550
O174        O  0.33690580  0.42503672  0.08936877    -0.79210
O175        O  0.26252787  0.36806238  0.43735705    -0.77410
O176        O  0.26254800  0.44719182  0.51113793    -1.13540
O177        O  0.18143668  0.38643548  0.48850827    -0.72740
C178        C  0.17371770  0.41332142  0.44133778     0.97980
C179        C  0.28238622  0.54761985  0.08792178     0.94370
Al180      Al  0.32437492  0.46299092  0.50792888     1.55560
O181        O  0.18132130  0.45896719  0.06626971    -0.77360
C182        C  0.30652766  0.37291962  0.42020283     0.98540
C183        C  0.28638005  0.53407315  0.40869587     0.93420
O184        O  0.24623250  0.53489401  0.43817040    -0.82680
C185        C  0.91644964  0.53195162  0.15941330     0.02790
C186        C  0.87560417  0.51539743  0.12586881    -0.13360
C187        C  0.84924759  0.55196811  0.09449829     0.00290
C188        C  0.86525823  0.60145565  0.09751774    -0.11890
C189        C  0.91521991  0.61160877  0.11268574     0.02780
C190        C  0.94368466  0.57132077  0.12892849    -0.11310
H191        H  0.86065788  0.47804713  0.13238493     0.08370
H192        H  0.84107102  0.63057212  0.58059382     0.05900
H193        H  0.98121109  0.57978492  0.14142695     0.05750
C194        C  0.92326800  0.57844415  0.41281383     0.02790
C195        C  0.88639902  0.56450663  0.36928410    -0.13360
C196        C  0.84130893  0.58874175  0.36992314     0.00290
C197        C  0.84242897  0.63329751  0.40354308    -0.11890
C198        C  0.87704256  0.63515228  0.45430128     0.02780
C199        C  0.90485479  0.59352499  0.46743335    -0.11310
H200        H  0.88350359  0.52525862  0.36245039     0.08370
H201        H  0.81607707  0.66231699  0.89440032     0.05900
H202        H  0.93178445  0.59288332  0.50556357     0.05750
C203        C  0.50761655  0.98499234  0.24725818     0.00220
C204        C  0.55511735  0.00183208  0.24204158     0.00220
C205        C  0.76725659  0.81213002  0.32365419     0.02790
C206        C  0.81255158  0.79469677  0.35662064    -0.13360
C207        C  0.84503125  0.82718745  0.39561763     0.00290
C208        C  0.83356717  0.87637495  0.39763324    -0.11890
C209        C  0.78721025  0.89334049  0.37892156     0.02780
C210        C  0.75438868  0.86176138  0.34108673    -0.11310
H211        H  0.82324649  0.75684922  0.35046551     0.08370
H212        H  0.85826926  0.90016669  0.42568275     0.05900
H213        H  0.71988159  0.87658298  0.32286164     0.05750
C214        C  0.77254551  0.81656172  0.20302434     0.02790
C215        C  0.82424505  0.80766888  0.19357171    -0.13360
C216        C  0.85646201  0.84111808  0.15723720     0.00290
C217        C  0.83829484  0.88521192  0.13493007    -0.11890
C218        C  0.78782617  0.89411664  0.13561323     0.02780
C219        C  0.75476137  0.86051679  0.17074276    -0.11310
H220        H  0.83939331  0.77399864  0.21393065     0.08370
H221        H  0.86306763  0.90953168  0.10772925     0.05900
H222        H  0.71590475  0.86923297  0.17408577     0.05750
O223        O  0.70902671  0.02361385  0.08546677    -0.82140
C224        C  0.79591833  0.10024602  0.38061018     0.97210
O225        O  0.75012671  0.09106889  0.37730308    -0.71260
O226        O  0.66994321  0.03755505  0.41011461    -0.74850
Al227      Al  0.71407607  0.08173626  0.95256628     1.48980
C228        C  0.63897279  0.01014101  0.44084404     0.92470
O229        O  0.73260759  0.94153573  0.44106930    -0.81070
O230        O  0.80613628  0.96849889  0.06911461    -0.74630
Al231      Al  0.72129472  0.98377788  0.01263495     1.90120
O232        O  0.80899606  0.97208320  0.42778633    -0.73700
O233        O  0.80681913  0.07936153  0.05461158    -0.73550
O234        O  0.82257017  0.07685799  0.42300364    -0.79210
O235        O  0.75585156  0.12930407  0.00045418    -0.77410
O236        O  0.74516452  0.03155761  0.97665599    -1.13540
O237        O  0.67517780  0.08040677  0.02276052    -0.72740
C238        C  0.68464322  0.06269029  0.07741066     0.97980
C239        C  0.77439495  0.93958220  0.41410409     0.94370
Al240      Al  0.80757431  0.02537373  0.99176125     1.55560
O241        O  0.65320608  0.98400330  0.48825072    -0.77360
C242        C  0.78643979  0.12189819  0.04707430     0.98540
C243        C  0.77223466  0.93449710  0.08965186     0.93420
O244        O  0.72695258  0.93199464  0.06742370    -0.82680
C245        C  0.74368914  0.78854106  0.25892929     0.00220
C246        C  0.70265102  0.75003332  0.25042208     0.00220
C247        C  0.68178085  0.72590383  0.18485735     0.02790
C248        C  0.69880110  0.67854029  0.16124223    -0.13360
C249        C  0.66895993  0.64736663  0.11767998     0.00290
C250        C  0.62257044  0.66351794  0.09972369    -0.11890
C251        C  0.60571225  0.70994820  0.11368437     0.02780
C252        C  0.63465777  0.74108446  0.15671076    -0.11310
H253        H  0.73431448  0.66525093  0.17828343     0.08370
H254        H  0.60035311  0.64097203  0.06715631     0.05900
H255        H  0.61933766  0.77568571  0.17084022     0.05750
C256        C  0.67197546  0.72204474  0.30505412     0.02790
C257        C  0.68404103  0.67228575  0.32281266    -0.13360
C258        C  0.64822358  0.63772385  0.34999914     0.00290
C259        C  0.59968186  0.65118339  0.35448121    -0.11890
C260        C  0.58912641  0.70093955  0.35721812     0.02780
C261        C  0.62365210  0.73666485  0.32722220    -0.11310
H262        H  0.72150588  0.66022523  0.31560739     0.08370
H263        H  0.57334683  0.62379702  0.37359484     0.05900
H264        H  0.61323006  0.77490317  0.32159712     0.05750
O265        O  0.55747585  0.75533915  0.03363326    -0.82140
C266        C  0.38529977  0.66317285  0.43528405     0.97210
O267        O  0.43153660  0.65343239  0.43579730    -0.71260
O268        O  0.53139163  0.67791117  0.44266082    -0.74850
Al269      Al  0.47726783  0.67128075  0.00709340     1.48980
C270        C  0.54700738  0.71133204  0.40227238     0.92470
O271        O  0.45341618  0.81048109  0.42053607    -0.81070
O272        O  0.40488452  0.80863156  0.03208435    -0.74630
Al273      Al  0.50249831  0.77915141  0.47868993     1.90120
O274        O  0.38760356  0.76027354  0.42690671    -0.73700
O275        O  0.39823981  0.72666342  0.09760972    -0.73550
O276        O  0.36785851  0.68230773  0.48390073    -0.79210
O277        O  0.42620128  0.65389437  0.07530474    -0.77410
O278        O  0.45912868  0.73116683  0.99802689    -1.13540
O279        O  0.52353240  0.68775576  0.07651972    -0.72740
C280        C  0.55841692  0.72082908  0.07604468     0.97980
C281        C  0.41076774  0.79468920  0.40028536     0.94370
Al282      Al  0.39475655  0.74380327  0.01000936     1.55560
O283        O  0.52898984  0.75338370  0.40347840    -0.77360
C284        C  0.39797350  0.68105312  0.10893495     0.98540
C285        C  0.44430265  0.83014521  0.04913173     0.93420
O286        O  0.48438633  0.80894965  0.05067341    -0.82680
C287        C  0.67121738  0.13597066  0.22460473     0.02790
C288        C  0.69466605  0.10694126  0.17948793    -0.13360
C289        C  0.66566300  0.09079629  0.12800077     0.00290
C290        C  0.62158009  0.11408146  0.11321579    -0.11890
C291        C  0.60805995  0.15482150  0.14564328     0.02780
C292        C  0.63877333  0.17061606  0.19645182    -0.11310
H293        H  0.72994732  0.08999322  0.19012733     0.08370
H294        H  0.60086008  0.10440256  0.57030353     0.05900
H295        H  0.63173921  0.20483088  0.21958137     0.05750
C296        C  0.49710313  0.01634334  0.43579855     0.02790
C297        C  0.54518495  0.99467469  0.43284458    -0.13360
C298        C  0.58784318  0.02501699  0.43671431     0.00290
C299        C  0.58318785  0.07512581  0.44070039    -0.11890
C300        C  0.53852558  0.09580372  0.44574968     0.02780
C301        C  0.49545400  0.06729577  0.44446123    -0.11310
H302        H  0.54977364  0.95538132  0.43058854     0.08370
H303        H  0.61486559  0.09989554  0.93837475     0.05900
H304        H  0.46102290  0.08460841  0.45423042     0.05750
C305        C  0.21453661  0.17172895  0.29519694     0.02790
C306        C  0.16868910  0.19166720  0.31378992    -0.13360
C307        C  0.13292097  0.16366978  0.35098438     0.00290
C308        C  0.14177961  0.11429374  0.36756377    -0.11890
C309        C  0.18715905  0.09346195  0.35544610     0.02780
C310        C  0.22299572  0.12194851  0.31771142    -0.11310
H311        H  0.16082983  0.22942398  0.29940582     0.08370
H312        H  0.11612989  0.09415075  0.39859197     0.05900
H313        H  0.25787346  0.10540885  0.30651838     0.05750
C314        C  0.22129224  0.17731171  0.17499874     0.02790
C315        C  0.17385605  0.19477666  0.14987186    -0.13360
C316        C  0.14185857  0.16610149  0.10685963     0.00290
C317        C  0.15799660  0.11995304  0.08955886    -0.11890
C318        C  0.20527106  0.10271979  0.10602432     0.02780
C319        C  0.23658706  0.13114875  0.14913935    -0.11310
H320        H  0.16137671  0.23036942  0.16472245     0.08370
H321        H  0.13537481  0.09958183  0.05508587     0.05900
H322        H  0.27180796  0.11623668  0.16471985     0.05750
O323        O  0.34256446  0.00509730  0.01451915    -0.82140
C324        C  0.20267669  0.87313869  0.43580965     0.97210
O325        O  0.23990488  0.86729871  0.47345711    -0.71260
O326        O  0.32350682  0.91759175  0.46682608    -0.74850
Al327      Al  0.27698226  0.91277150  0.02895734     1.48980
C328        C  0.31748701  0.93226425  0.41064148     0.92470
O329        O  0.24601298  0.05028527  0.41329816    -0.81070
O330        O  0.18658969  0.02334585  0.05835167    -0.74630
Al331      Al  0.28353438  0.01714212  0.97078497     1.90120
O332        O  0.17294870  0.01826687  0.42505906    -0.73700
O333        O  0.16982513  0.91739202  0.06864264    -0.73550
O334        O  0.17799419  0.91344949  0.43654966    -0.79210
O335        O  0.24185882  0.89465240  0.10199071    -0.77410
O336        O  0.24617232  0.96615649  0.99973731    -1.13540
O337        O  0.31480347  0.95215063  0.08435856    -0.72740
C338        C  0.35053035  0.97527216  0.05895541     0.97980
C339        C  0.20205103  0.05010250  0.39795159     0.94370
Al340      Al  0.18200227  0.96812556  0.99775727     1.55560
O341        O  0.30221006  0.97576629  0.39933920    -0.77360
C342        C  0.19643776  0.88965949  0.10541198     0.98540
C343        C  0.22000656  0.05794646  0.06872037     0.93420
O344        O  0.26191489  0.05876433  0.04005573    -0.82680
C345        C  0.28745528  0.23303955  0.24903334     0.00220
C346        C  0.24525947  0.19723363  0.24003167     0.00220
C347        C  0.30877733  0.25425181  0.31452879     0.02790
C348        C  0.29319649  0.30164519  0.33689222    -0.13360
C349        C  0.32401337  0.33203799  0.37881100     0.00290
C350        C  0.36980798  0.31544816  0.39729654    -0.11890
C351        C  0.38422517  0.26769206  0.38653240     0.02780
C352        C  0.35475036  0.23704888  0.34360761    -0.11310
H353        H  0.25789695  0.31564262  0.32007252     0.08370
H354        H  0.39239601  0.33828520  0.42921355     0.05900
H355        H  0.36866152  0.20159000  0.33045916     0.05750
C356        C  0.31687376  0.26226643  0.19531292     0.02790
C357        C  0.30399295  0.31198047  0.17918893    -0.13360
C358        C  0.33890669  0.34712413  0.15158526     0.00290
C359        C  0.38763187  0.33423683  0.14569028    -0.11890
C360        C  0.39868315  0.28462225  0.14321008     0.02780
C361        C  0.36504607  0.24849688  0.17312143    -0.11310
H362        H  0.26641465  0.32336263  0.18723315     0.08370
H363        H  0.41340495  0.36155916  0.12516332     0.05900
H364        H  0.37597134  0.21038649  0.17843483     0.05750
O365        O  0.49831407  0.16736554  0.46030029    -0.82140
C366        C  0.59958841  0.31889112  0.06655874     0.97210
O367        O  0.61805833  0.29618044  0.02153759    -0.71260
O368        O  0.59389692  0.22266611  0.08677087    -0.74850
Al369      Al  0.59131945  0.23395787  0.50012055     1.48980
C370        C  0.57340372  0.18577196  0.11075534     0.92470
O371        O  0.45994393  0.23214806  0.10260517    -0.81070
O372        O  0.46639756  0.28714759  0.42242674    -0.74630
Al373      Al  0.48292083  0.20169427  0.02955000     1.90120
O374        O  0.45444854  0.30463038  0.05481950    -0.73700
O375        O  0.56227229  0.32058915  0.42469209    -0.73550
O376        O  0.55369015  0.32940721  0.06305254    -0.79210
O377        O  0.59426941  0.24796130  0.41099784    -0.77410
O378        O  0.52732231  0.24800196  0.50649706    -1.13540
O379        O  0.57812701  0.16777690  0.48057545    -0.72740
C380        C  0.53852671  0.14647492  0.46130340     0.97980
C381        C  0.44049712  0.27348161  0.09900515     0.94370
Al382      Al  0.51002506  0.30750930  0.49190085     1.55560
O383        O  0.53163181  0.16958362  0.08823743    -0.77360
C384        C  0.59204050  0.29278590  0.39430639     0.98540
C385        C  0.42998618  0.25614145  0.42614597     0.93420
O386        O  0.42825155  0.22551352  0.47342255    -0.82680
C387        C  0.48886891  0.95958979  0.05113007     0.02790
C388        C  0.48805726  0.90891330  0.04429662    -0.13360
C389        C  0.44498133  0.88160533  0.05574745     0.00290
C390        C  0.40125123  0.90368920  0.06569112    -0.11890
C391        C  0.39893539  0.95416138  0.06010830     0.02780
C392        C  0.44216970  0.98252676  0.05261121    -0.11310
H393        H  0.51889676  0.89010623  0.02642030     0.08370
H394        H  0.36892309  0.88082342  0.57680861     0.05900
H395        H  0.43806982  0.02179862  0.04710114     0.05750
C396        C  0.37431162  0.87484699  0.26669777     0.02790
C397        C  0.38776803  0.83024289  0.29577636    -0.13360
C398        C  0.37966490  0.82356385  0.35926344     0.00290
C399        C  0.34402727  0.84969958  0.38858898    -0.11890
C400        C  0.33175649  0.89604108  0.36387964     0.02780
C401        C  0.34561820  0.90837321  0.30259937    -0.11310
H402        H  0.40756516  0.80214418  0.27311179     0.08370
H403        H  0.33403526  0.83813711  0.93673316     0.05900
H404        H  0.33886847  0.94619933  0.28823072     0.05750
C405        C  0.66923948  0.05739253  0.28758143    -0.20650
C406        C  0.65128022  0.10585421  0.28007421    -0.07220
C407        C  0.60257235  0.11358817  0.30232422     0.13650
C408        C  0.56950056  0.07321131  0.30520383    -0.20700
C409        C  0.58491482  0.02587583  0.29149862    -0.07220
C410        C  0.63611163  0.01700031  0.29188508     0.13640
C411        C  0.65599974  0.96549481  0.29308239    -0.24050
H412        H  0.70808534  0.05011956  0.28061914     0.14930
H413        H  0.53053444  0.07991425  0.31082558     0.14960
C414        C  0.58158809  0.16388026  0.31121612    -0.24000
H415        H  0.67890463  0.95967823  0.33689085     0.05170
H416        H  0.68028133  0.96041428  0.25160166     0.08400
H417        H  0.62552293  0.93703374  0.29296699     0.08400
H418        H  0.56240118  0.17776854  0.26743951     0.08380
H419        H  0.61145919  0.18949083  0.32717349     0.08380
H420        H  0.55238059  0.16274755  0.34699976     0.05160
C421        C  0.48806889  0.91590246  0.18685259    -0.20650
C422        C  0.47664794  0.96527812  0.19509951    -0.07220
C423        C  0.42576945  0.97897255  0.18928727     0.13650
C424        C  0.39012623  0.94159515  0.19327011    -0.20700
C425        C  0.40300082  0.89398163  0.21181760    -0.07220
C426        C  0.45230171  0.87901899  0.19886956     0.13640
C427        C  0.46927850  0.82626195  0.19583123    -0.24050
H428        H  0.52659335  0.90567531  0.18409196     0.14930
H429        H  0.35137872  0.95093538  0.19016843     0.14960
C430        C  0.40654653  0.03074947  0.17565431    -0.24000
H431        H  0.50181635  0.82394027  0.16442546     0.05170
H432        H  0.43934257  0.80179028  0.17605647     0.08400
H433        H  0.48286176  0.81221117  0.24282902     0.08400
H434        H  0.42909253  0.05151499  0.14086325     0.08380
H435        H  0.39997363  0.05259949  0.21785912     0.08380
H436        H  0.36881197  0.02923821  0.15395248     0.05160
C437        C  0.53060922  0.03663637  0.08246912    -0.20650
C438        C  0.53628590  0.98733416  0.06490630    -0.07220
C439        C  0.57921737  0.96316123  0.08979064     0.13650
C440        C  0.59746558  0.97912075  0.14813671    -0.20700
C441        C  0.57155312  0.01505362  0.17901675    -0.07220
C442        C  0.54199163  0.04831247  0.14429909     0.13640
C443        C  0.51373262  0.08881939  0.17528007    -0.24050
H444        H  0.50467915  0.06048690  0.05929116     0.14930
H445        H  0.62237087  0.95547008  0.17464839     0.14960
C446        C  0.59912965  0.91491924  0.06766246    -0.24000
H447        H  0.48825530  0.10807982  0.14182601     0.05170
H448        H  0.53800844  0.11586704  0.19884417     0.08400
H449        H  0.49015106  0.07387779  0.21258528     0.08400
H450        H  0.59541795  0.91145097  0.01511279     0.08380
H451        H  0.58129897  0.88314996  0.09376853     0.08380
H452        H  0.63914921  0.91276525  0.07937212     0.05160
C453        C  0.44905169  0.01859495  0.31757720    -0.20650
C454        C  0.48245514  0.98096312  0.30568874    -0.07220
C455        C  0.48137611  0.93716044  0.34433313     0.13650
C456        C  0.45537433  0.94040885  0.40094943    -0.20700
C457        C  0.44827255  0.98896016  0.42060102    -0.07220
C458        C  0.42301444  0.01638376  0.37336838     0.13640
C459        C  0.38819528  0.05746857  0.38584081    -0.24050
H460        H  0.44928515  0.05278754  0.29136843     0.14930
H461        H  0.45196929  0.90903846  0.43295760     0.14960
C462        C  0.51258570  0.89272028  0.33449878    -0.24000
H463        H  0.40380202  0.09361662  0.36820200     0.05170
H464        H  0.38170979  0.06099357  0.43738252     0.08400
H465        H  0.35267790  0.05072463  0.35954684     0.08400
H466        H  0.53573662  0.88477237  0.37768633     0.08380
H467        H  0.53833779  0.89791975  0.29427323     0.08380
H468        H  0.48797974  0.86016962  0.32674126     0.05160
C469        C  0.95727829  0.60469056  0.25511273    -0.20650
C470        C  0.98950952  0.56981361  0.28323110    -0.07220
C471        C  0.96676319  0.52321313  0.30287697     0.13650
C472        C  0.92565989  0.50648978  0.26706760    -0.20700
C473        C  0.90311863  0.54021018  0.22625014    -0.07220
C474        C  0.90780552  0.59011570  0.24442050     0.13640
C475        C  0.86602125  0.62633154  0.23492652    -0.24050
H476        H  0.97111969  0.64010363  0.23724062     0.14930
H477        H  0.91223365  0.46840580  0.27008004     0.14960
C478        C  0.98403849  0.49024240  0.35665439    -0.24000
H479        H  0.85613354  0.64408479  0.27890964     0.05170
H480        H  0.83177550  0.60745504  0.21640380     0.08400
H481        H  0.87632698  0.65828542  0.20442136     0.08400
H482        H  0.01821591  0.50529196  0.37876369     0.08380
H483        H  0.98830939  0.45221724  0.33968218     0.08380
H484        H  0.95575482  0.48695946  0.39435127     0.05160
C485        C  0.14897473  0.55289728  0.26134276    -0.20650
C486        C  0.13399804  0.59001723  0.30275849    -0.07220
C487        C  0.14935621  0.57665316  0.36467094     0.13650
C488        C  0.12803102  0.53076222  0.38497958    -0.20700
C489        C  0.11371135  0.49567196  0.33661244    -0.07220
C490        C  0.14111573  0.50301016  0.28067896     0.13640
C491        C  0.18108337  0.46716281  0.26661680    -0.24050
H492        H  0.17193862  0.56196308  0.22134421     0.14930
H493        H  0.12113506  0.52537237  0.43518291     0.14960
C494        C  0.17359825  0.61368676  0.40937737    -0.24000
H495        H  0.20115022  0.47803297  0.22239055     0.05170
H496        H  0.16561585  0.42925271  0.26191673     0.08400
H497        H  0.20887955  0.46708649  0.30645076     0.08400
H498        H  0.17977278  0.59750800  0.45770473     0.08380
H499        H  0.21024613  0.62642607  0.39669263     0.08380
H500        H  0.15357642  0.64863657  0.40879554     0.05160
C501        C  0.02935458  0.50207662  0.20318735    -0.20650
C502        C  0.05295119  0.54878276  0.20885309    -0.07220
C503        C  0.07267723  0.57159730  0.15279218     0.13650
C504        C  0.07083139  0.54390987  0.09697257    -0.20700
C505        C  0.04571790  0.49788730  0.09664720    -0.07220
C506        C  0.01269791  0.48555320  0.14499412     0.13640
C507        C  0.97977403  0.43902357  0.14387560    -0.24050
H508        H  0.02175736  0.47892734  0.24359565     0.14930
H509        H  0.09918707  0.55047525  0.06236503     0.14960
C510        C  0.09712341  0.62211386  0.15050920    -0.24000
H511        H  0.94879684  0.44110791  0.17739461     0.05170
H512        H  0.00102915  0.40610384  0.15923151     0.08400
H513        H  0.96337188  0.43379755  0.09538950     0.08400
H514        H  0.09904004  0.63926796  0.19745485     0.08380
H515        H  0.07564592  0.64695021  0.11861759     0.08380
H516        H  0.13540269  0.61987784  0.13235004     0.05160
C517        C  0.02598422  0.66527523  0.34355718    -0.20650
C518        C  0.06247277  0.63188530  0.35929349    -0.07220
C519        C  0.05660261  0.60755738  0.41921563     0.13650
C520        C  0.01060841  0.58654992  0.42951105    -0.20700
C521        C  0.96972436  0.60686330  0.39816001    -0.07220
C522        C  0.97771482  0.65445887  0.36410437     0.13640
C523        C  0.94075421  0.69271466  0.34138968    -0.24050
H524        H  0.03187817  0.69201421  0.30486388     0.14930
H525        H  0.00597942  0.55922258  0.46796610     0.14960
C526        C  0.08020168  0.62769267  0.47912634    -0.24000
H527        H  0.94469161  0.70246148  0.28999722     0.05170
H528        H  0.94806104  0.72753387  0.36742720     0.08400
H529        H  0.90233202  0.68208708  0.34733452     0.08400
H530        H  0.11088542  0.60534420  0.49521678     0.08380
H531        H  0.05440692  0.62511319  0.51945230     0.08380
H532        H  0.09377153  0.66644578  0.47300899     0.05160
C533        C  0.07879222  0.60141777  0.80429953     0.00220
C534        C  0.04353527  0.57503443  0.76861497     0.00220
C535        C  0.80617048  0.22658553  0.78371737     0.02790
C536        C  0.85557988  0.23895734  0.80739685    -0.13360
C537        C  0.88496627  0.20433419  0.84492269     0.00290
C538        C  0.86592367  0.15689086  0.85610054    -0.11890
C539        C  0.81662140  0.14437925  0.84270821     0.02780
C540        C  0.78712168  0.17871066  0.80491366    -0.11310
H541        H  0.87146553  0.27520692  0.79599118     0.08370
H542        H  0.88800409  0.13121281  0.88429664     0.05900
H543        H  0.74938907  0.16823475  0.79220997     0.05750
C544        C  0.80341541  0.23705594  0.66100725     0.02790
C545        C  0.78035421  0.19517625  0.62940165    -0.13360
C546        C  0.80637025  0.16588711  0.58458888     0.00290
C547        C  0.85458012  0.17981455  0.56903910    -0.11890
C548        C  0.87882924  0.22226113  0.59180703     0.02780
C549        C  0.85333840  0.25072746  0.63899842    -0.11310
H550        H  0.74282093  0.18473724  0.64143975     0.08370
H551        H  0.87264336  0.15808879  0.53360500     0.05900
H552        H  0.87269176  0.28214819  0.65990958     0.05750
O553        O  0.01638728  0.33626379  0.51421408    -0.82140
C554        C  0.09326912  0.18841627  0.88675539     0.97210
O555        O  0.09758601  0.23461582  0.89100115    -0.71260
O556        O  0.08007425  0.32189606  0.92782824    -0.74850
Al557      Al  0.08783657  0.26349640  0.46968540     1.48980
C558        C  0.05601074  0.33192027  0.87777933     0.92470
O559        O  0.93408015  0.26142361  0.90386990    -0.81070
O560        O  0.95428991  0.19688869  0.54096968    -0.74630
Al561      Al  0.97855289  0.29470976  0.95876787     1.90120
O562        O  0.95986621  0.18499541  0.90863002    -0.73700
O563        O  0.05541884  0.17626489  0.56004465    -0.73550
O564        O  0.06135986  0.16382085  0.92140821    -0.79210
O565        O  0.11849082  0.21102662  0.51398562    -0.77410
O566        O  0.02356680  0.24672593  0.46965747    -1.13540
O567        O  0.08032742  0.29169280  0.54736096    -0.72740
C568        C  0.05479267  0.32953527  0.54976926     0.97980
C569        C  0.93010831  0.21778975  0.88572897     0.94370
Al570      Al  0.00856131  0.18472338  0.48167951     1.55560
O571        O  0.01026961  0.32051426  0.87807953    -0.77360
C572        C  0.10223645  0.18717868  0.56095500     0.98540
C573        C  0.92805849  0.23339877  0.55704241     0.93420
O574        O  0.93812271  0.27602400  0.53336835    -0.82680
C575        C  0.78111256  0.25647769  0.72598466     0.00220
C576        C  0.74181375  0.29387139  0.73036075     0.00220
C577        C  0.71373091  0.31384725  0.79152986     0.02790
C578        C  0.66922433  0.28958844  0.81619121    -0.13360
C579        C  0.63226343  0.31558680  0.85167719     0.00290
C580        C  0.63898741  0.36615732  0.85984176    -0.11890
C581        C  0.68420816  0.38973775  0.84990703     0.02780
C582        C  0.72089521  0.36448022  0.81283515    -0.11310
H583        H  0.66321993  0.25103827  0.80642998     0.08370
H584        H  0.61114116  0.38626905  0.88445629     0.05900
H585        H  0.75466378  0.38450452  0.79974010     0.05750
C586        C  0.71640114  0.31983527  0.67138147     0.02790
C587        C  0.73000838  0.36877078  0.64837463    -0.13360
C588        C  0.69348919  0.39957239  0.61709316     0.00290
C589        C  0.64402381  0.38441129  0.61780081    -0.11890
C590        C  0.63388099  0.33457407  0.61882701     0.02780
C591        C  0.66916049  0.30213084  0.64859476    -0.11310
H592        H  0.76767554  0.38285207  0.65525097     0.08370
H593        H  0.61616048  0.40817164  0.59609610     0.05900
H594        H  0.66037600  0.26335914  0.65330764     0.05750
O595        O  0.80637728  0.51618812  0.91089573    -0.82140
C596        C  0.68504445  0.60327938  0.57765538     0.97210
O597        O  0.72973518  0.60211032  0.56233174    -0.71260
O598        O  0.80498583  0.57299909  0.50644324    -0.74850
Al599      Al  0.74434121  0.58863354  0.97572286     1.48980
C600        C  0.81444553  0.53977130  0.54669220     0.92470
O601        O  0.73328773  0.43022564  0.52309872    -0.81070
O602        O  0.66068246  0.45521565  0.92584935    -0.74630
Al603      Al  0.76561244  0.47733099  0.46707896     1.90120
O604        O  0.67345071  0.47442544  0.56055766    -0.73700
O605        O  0.64631138  0.55702747  0.90711243    -0.73550
O606        O  0.65337560  0.57359548  0.54803856    -0.79210
O607        O  0.68817075  0.61947773  0.94540207    -0.77410
O608        O  0.72303020  0.52638918  0.97718148    -1.13540
O609        O  0.75882311  0.57875385  0.88966777    -0.72740
C610        C  0.79849427  0.55731232  0.88211729     0.97980
C611        C  0.70287514  0.43832711  0.56669825     0.94370
Al612      Al  0.66117138  0.51529588  0.98503386     1.55560
O613        O  0.79852804  0.49642304  0.54053974    -0.77360
C614        C  0.66242257  0.60181706  0.90121819     0.98540
C615        C  0.69355236  0.43621021  0.88929284     0.93420
O616        O  0.73703591  0.45271840  0.89208718    -0.82680
C617        C  0.07811098  0.45717999  0.59332579     0.02790
C618        C  0.06156572  0.41678956  0.56063418    -0.13360
C619        C  0.07636751  0.37058387  0.58227702     0.00290
C620        C  0.11778435  0.36639511  0.62420084    -0.11890
C621        C  0.14210503  0.41013546  0.64284513     0.02780
C622        C  0.11269391  0.45108439  0.64361464    -0.11310
H623        H  0.03228979  0.42141273  0.52483330     0.08370
H624        H  0.13616288  0.33143269  0.13070348     0.05900
H625        H  0.12751574  0.48445967  0.66412430     0.05750
C626        C  0.08301413  0.44918989  0.85058921     0.02790
C627        C  0.06992849  0.40989120  0.80685330    -0.13360
C628        C  0.08488378  0.36124658  0.82643481     0.00290
C629        C  0.13376101  0.36747519  0.85169840    -0.11890
C630        C  0.13403534  0.40115235  0.90296520     0.02780
C631        C  0.09427198  0.43166992  0.91000367    -0.11550
H632        H  0.07136811  0.41778645  0.75627645     0.08370
H633        H  0.16168219  0.33955872  0.34878494     0.05900
H634        H  0.09192578  0.45453373  0.95127733     0.05750
C635        C  0.18300160  0.75401868  0.82901750     0.02790
C636        C  0.13136803  0.74441044  0.85130688    -0.13360
C637        C  0.10550222  0.77573780  0.89724069     0.00290
C638        C  0.13237815  0.81750225  0.91697683    -0.11890
C639        C  0.18121354  0.82884130  0.90027177     0.02780
C640        C  0.20663124  0.79712167  0.85746288    -0.11310
H641        H  0.11162461  0.71370868  0.83064092     0.08370
H642        H  0.11568738  0.84150889  0.95090983     0.05900
H643        H  0.24401562  0.80763775  0.84350392     0.05750
C644        C  0.18263818  0.76289370  0.70601854     0.02790
C645        C  0.13228567  0.75325386  0.68293997    -0.13360
C646        C  0.10452044  0.78879969  0.64471587     0.00290
C647        C  0.12573605  0.83512034  0.63230343    -0.11890
C648        C  0.17534036  0.84588500  0.64502077     0.02780
C649        C  0.20373683  0.81020774  0.68346570    -0.11310
H650        H  0.11378412  0.71912696  0.69694345     0.08370
H651        H  0.10467593  0.86144479  0.60373799     0.05900
H652        H  0.24190374  0.81952422  0.69632510     0.05750
O653        O  0.97833514  0.67515935  0.60161714    -0.82140
C654        C  0.88374356  0.81408684  0.94836821     0.97210
O655        O  0.86812572  0.80330283  0.00399426    -0.71260
O656        O  0.87687417  0.71490195  0.98623840    -0.74850
Al657      Al  0.89454560  0.74946822  0.55539169     1.48980
C658        C  0.90212581  0.67941653  0.97210263     0.92470
O659        O  0.03288817  0.72878093  0.94626651    -0.81070
O660        O  0.02689852  0.81424434  0.59267478    -0.74630
Al661      Al  0.99891721  0.70981910  0.52689154     1.90120
O662        O  0.03476600  0.80712421  0.96020880    -0.73700
O663        O  0.92733843  0.84856907  0.58192973    -0.73550
O664        O  0.93071899  0.82394106  0.94417898    -0.79210
O665        O  0.90958356  0.77995158  0.63130879    -0.77410
O666        O  0.95837137  0.75894501  0.53323309    -1.13540
O667        O  0.90087082  0.69357042  0.60231243    -0.72740
C668        C  0.93370801  0.66277646  0.60937165     0.97980
C669        C  0.05391932  0.76989592  0.93360805     0.94370
Al670      Al  0.97855459  0.81983672  0.52044458     1.55560
O671        O  0.94914454  0.67754177  0.98121800    -0.77360
C672        C  0.90299254  0.82450305  0.62624496     0.98540
C673        C  0.05730342  0.77897513  0.60574295     0.93420
O674        O  0.05214790  0.73794107  0.57806568    -0.82680
C675        C  0.20635087  0.73107647  0.76452032     0.00220
C676        C  0.24432278  0.69022251  0.75894764     0.00220
C677        C  0.27058211  0.66991918  0.69613377     0.02790
C678        C  0.25703925  0.62299620  0.66527219    -0.13360
C679        C  0.29241810  0.59360817  0.63031898     0.00290
C680        C  0.34119807  0.61119037  0.62895279    -0.11890
C681        C  0.35441686  0.65922285  0.64549969     0.02780
C682        C  0.31995364  0.68779543  0.68079199    -0.11310
H683        H  0.21947663  0.60948522  0.66866486     0.08370
H684        H  0.36822868  0.58975130  0.60476569     0.05900
H685        H  0.33214757  0.72374832  0.69765108     0.05750
C686        C  0.27260734  0.65961358  0.81465906     0.02790
C687        C  0.26754379  0.60581038  0.82150694    -0.13360
C688        C  0.30017029  0.57658939  0.86236802     0.00290
C689        C  0.34563447  0.59764756  0.87823381    -0.11890
C690        C  0.35011946  0.64822819  0.88284065     0.02780
C691        C  0.31399070  0.67984719  0.85102660    -0.11310
H692        H  0.23645935  0.58729757  0.79886320     0.08370
H693        H  0.37270093  0.57527972  0.90397953     0.05900
H694        H  0.31914831  0.71958813  0.85262100     0.05750
O695        O  0.19206078  0.45628794  0.93580028    -0.82140
C696        C  0.32338464  0.37992154  0.59809067     0.97210
O697        O  0.30134006  0.35858153  0.55388362    -0.71260
O698        O  0.22079745  0.39282307  0.60292340    -0.74850
Al699      Al  0.24359230  0.38200617  0.02032335     1.48980
C700        C  0.18593711  0.42279597  0.60615132     0.92470
O701        O  0.23866398  0.53546566  0.57173466    -0.81070
O702        O  0.31904416  0.50353392  0.92827686    -0.74630
Al703      Al  0.21741292  0.49240925  0.50355601     1.90120
O704        O  0.31829677  0.52326657  0.56394006    -0.73700
O705        O  0.33639335  0.40468580  0.94883946    -0.73550
O706        O  0.33690588  0.42503646  0.58936951    -0.79210
O707        O  0.26252734  0.36806283  0.93735621    -0.77410
O708        O  0.26254777  0.44719202  0.01113767    -1.13540
O709        O  0.18143630  0.38643586  0.98850820    -0.72740
C710        C  0.17371713  0.41332209  0.94133803     0.97980
C711        C  0.28238609  0.54761981  0.58792175     0.94370
Al712      Al  0.32437467  0.46299108  0.00792822     1.55560
O713        O  0.18132129  0.45896718  0.56626908    -0.77360
C714        C  0.30652726  0.37291962  0.92020234     0.98540
C715        C  0.28637951  0.53407334  0.90869569     0.93420
O716        O  0.24623223  0.53489452  0.93817086    -0.82680
C717        C  0.91644904  0.53195191  0.65941363     0.02790
C718        C  0.87560347  0.51539739  0.62586952    -0.13360
C719        C  0.84924670  0.55196781  0.59449879     0.00290
C720        C  0.86525712  0.60145542  0.59751797    -0.11890
C721        C  0.91521883  0.61160878  0.61268564     0.02780
C722        C  0.94368383  0.57132096  0.62892839    -0.11310
H723        H  0.86065743  0.47804701  0.63238580     0.08370
H724        H  0.84107228  0.63057253  0.08059378     0.05900
H725        H  0.98121031  0.57978522  0.64142654     0.05750
C726        C  0.92326819  0.57844438  0.91281362     0.02790
C727        C  0.88639903  0.56450717  0.86928400    -0.13360
C728        C  0.84130904  0.58874245  0.86992345     0.00290
C729        C  0.84242935  0.63329798  0.90354386    -0.11890
C730        C  0.87704316  0.63515235  0.95430186     0.02780
C731        C  0.90485526  0.59352493  0.96743340    -0.11310
H732        H  0.88350342  0.52525917  0.86245025     0.08370
H733        H  0.81607663  0.66231638  0.39439909     0.05900
H734        H  0.93178503  0.59288299  0.00556351     0.05750
C735        C  0.50760866  0.98499352  0.74725833     0.00220
C736        C  0.55510938  0.00183350  0.74204261     0.00220
C737        C  0.76725669  0.81212949  0.82365441     0.02790
C738        C  0.81255170  0.79469621  0.85662096    -0.13360
C739        C  0.84503133  0.82718685  0.89561813     0.00290
C740        C  0.83356712  0.87637431  0.89763389    -0.11890
C741        C  0.78721032  0.89333992  0.87892172     0.02780
C742        C  0.75438883  0.86176088  0.84108679    -0.11310
H743        H  0.82324664  0.75684868  0.85046573     0.08370
H744        H  0.85826907  0.90016604  0.92568362     0.05900
H745        H  0.71988187  0.87658266  0.82286143     0.05750
C746        C  0.77254548  0.81656135  0.70302461     0.02790
C747        C  0.82424498  0.80766853  0.69357200    -0.13360
C748        C  0.85646193  0.84111778  0.65723761     0.00290
C749        C  0.83829483  0.88521170  0.63493072    -0.11890
C750        C  0.78782615  0.89411636  0.63561370     0.02780
C751        C  0.75476132  0.86051644  0.67074309    -0.11310
H752        H  0.83939321  0.77399823  0.71393079     0.08370
H753        H  0.86306766  0.90953152  0.60773003     0.05900
H754        H  0.71590469  0.86923257  0.67408603     0.05750
O755        O  0.70902650  0.02361347  0.58546819    -0.82140
C756        C  0.79591846  0.10024522  0.88060859     0.97210
O757        O  0.75012691  0.09106753  0.87730087    -0.71260
O758        O  0.66994304  0.03755453  0.91011374    -0.74850
Al759      Al  0.71407584  0.08173661  0.45256816     1.48980
C760        C  0.63897236  0.01014106  0.94084362     0.92470
O761        O  0.73260746  0.94153545  0.94106867    -0.81070
O762        O  0.80613636  0.96849867  0.56911523    -0.74630
Al763      Al  0.72129482  0.98377791  0.51263585     1.90120
O764        O  0.80899608  0.97208278  0.92778588    -0.73700
O765        O  0.80681916  0.07936123  0.55461290    -0.73550
O766        O  0.82257025  0.07685754  0.92300243    -0.79210
O767        O  0.75585105  0.12930395  0.50045666    -0.77410
O768        O  0.74516445  0.03155783  0.47665718    -1.13540
O769        O  0.67517731  0.08040648  0.52276246    -0.72740
C770        C  0.68464257  0.06268968  0.57741252     0.97980
C771        C  0.77439494  0.93958179  0.91410372     0.94370
Al772      Al  0.80757428  0.02537385  0.49176219     1.55560
O773        O  0.65320570  0.98400335  0.98825028    -0.77360
C774        C  0.78643959  0.12189780  0.54707629     0.98540
C775        C  0.77223471  0.93449684  0.58965234     0.93420
O776        O  0.72695263  0.93199440  0.56742413    -0.82680
C777        C  0.74368919  0.78854061  0.75892949     0.00220
C778        C  0.70265106  0.75003292  0.75042215     0.00220
C779        C  0.68178090  0.72590357  0.68485733     0.02790
C780        C  0.69880108  0.67854003  0.66124208    -0.13360
C781        C  0.66895997  0.64736658  0.61767949     0.00290
C782        C  0.62257066  0.66351820  0.59972283    -0.11890
C783        C  0.60571245  0.70994838  0.61368396     0.02780
C784        C  0.63465790  0.74108437  0.65671072    -0.11310
H785        H  0.73431435  0.66525049  0.67828346     0.08370
H786        H  0.60035343  0.64097254  0.56715506     0.05900
H787        H  0.61933779  0.77568555  0.67084045     0.05750
C788        C  0.67197547  0.72204435  0.80505411     0.02790
C789        C  0.68404107  0.67228541  0.82281269    -0.13360
C790        C  0.64822361  0.63772352  0.84999912     0.00290
C791        C  0.59968185  0.65118295  0.85448092    -0.11890
C792        C  0.58912639  0.70093908  0.85721794     0.02780
C793        C  0.62365208  0.73666443  0.82722212    -0.11310
H794        H  0.72150595  0.66022493  0.81560754     0.08370
H795        H  0.57334680  0.62379656  0.87359446     0.05900
H796        H  0.61323004  0.77490275  0.82159708     0.05750
O797        O  0.55747576  0.75533966  0.53363337    -0.82140
C798        C  0.38529976  0.66317234  0.93528367     0.97210
O799        O  0.43153657  0.65343177  0.93579715    -0.71260
O800        O  0.53139162  0.67791063  0.94266068    -0.74850
Al801      Al  0.47726790  0.67128112  0.50709348     1.48980
C802        C  0.54700744  0.71133153  0.90227227     0.92470
O803        O  0.45341670  0.81048086  0.92053598    -0.81070
O804        O  0.40488445  0.80863148  0.53208593    -0.74630
Al805      Al  0.50249851  0.77915088  0.97868979     1.90120
O806        O  0.38760462  0.76027259  0.92690467    -0.73700
O807        O  0.39824060  0.72666320  0.59761079    -0.73550
O808        O  0.36785849  0.68230742  0.98390013    -0.79210
O809        O  0.42620143  0.65389421  0.57530478    -0.77410
O810        O  0.45912861  0.73116727  0.49802729    -1.13540
O811        O  0.52353252  0.68775605  0.57651970    -0.72740
C812        C  0.55841700  0.72082941  0.57604460     0.97980
C813        C  0.41076872  0.79468868  0.90028413     0.94370
Al814      Al  0.39475653  0.74380350  0.51001069     1.55560
O815        O  0.52899006  0.75338326  0.90347836    -0.77360
C816        C  0.39797386  0.68105285  0.60893538     0.98540
C817        C  0.44430254  0.83014580  0.54913197     0.93420
O818        O  0.48438641  0.80895060  0.55067355    -0.82680
C819        C  0.67121389  0.13597001  0.72460658     0.02790
C820        C  0.69466360  0.10694065  0.67949052    -0.13360
C821        C  0.66566120  0.09079476  0.62800302     0.00290
C822        C  0.62157769  0.11407890  0.61321768    -0.11890
C823        C  0.60805690  0.15481925  0.64564426     0.02780
C824        C  0.63877034  0.17061502  0.69645209    -0.11310
H825        H  0.72994512  0.08999340  0.69013081     0.08370
H826        H  0.60086171  0.10440527  0.07030216     0.05900
H827        H  0.63173637  0.20483048  0.71958024     0.05750
C828        C  0.49710241  0.01634558  0.93579902     0.02790
C829        C  0.54518379  0.99467604  0.93284375    -0.13360
C830        C  0.58784276  0.02501766  0.93671404     0.00290
C831        C  0.58318825  0.07512663  0.94070021    -0.11890
C832        C  0.53852641  0.09580508  0.94575084     0.02780
C833        C  0.49545444  0.06729779  0.94446319    -0.11310
H834        H  0.54977164  0.95538260  0.93058660     0.08370
H835        H  0.61486503  0.09989499  0.43837573     0.05900
H836        H  0.46102392  0.08461074  0.95423441     0.05750
C837        C  0.21453727  0.17172768  0.79519696     0.02790
C838        C  0.16868933  0.19166543  0.81378915    -0.13360
C839        C  0.13292142  0.16366796  0.85098389     0.00290
C840        C  0.14178071  0.11429222  0.86756423    -0.11890
C841        C  0.18716058  0.09346094  0.85544726     0.02780
C842        C  0.22299708  0.12194763  0.81771246    -0.11310
H843        H  0.16082959  0.22942195  0.79940433     0.08370
H844        H  0.11613116  0.09414927  0.89859269     0.05900
H845        H  0.25787517  0.10540837  0.80652013     0.05750
C846        C  0.22129256  0.17731089  0.67499856     0.02790
C847        C  0.17385632  0.19477608  0.64987220    -0.13360
C848        C  0.14185862  0.16610135  0.60685973     0.00290
C849        C  0.15799657  0.11995313  0.58955794    -0.11890
C850        C  0.20527106  0.10271963  0.60602276     0.02780
C851        C  0.23658724  0.13114810  0.64913827    -0.11310
H852        H  0.16137707  0.23036871  0.66472341     0.08370
H853        H  0.13537461  0.09958229  0.55508475     0.05900
H854        H  0.27180812  0.11623580  0.66471839     0.05750
O855        O  0.34256278  0.00509676  0.51451429    -0.82140
C856        C  0.20267889  0.87313828  0.93581106     0.97210
O857        O  0.23990808  0.86729883  0.97345702    -0.71260
O858        O  0.32350979  0.91759371  0.96682887    -0.74850
Al859      Al  0.27698009  0.91277158  0.52895572     1.48980
C860        C  0.31748985  0.93226617  0.91064436     0.92470
O861        O  0.24601444  0.05028656  0.91330273    -0.81070
O862        O  0.18658900  0.02334551  0.55835083    -0.74630
Al863      Al  0.28353259  0.01714128  0.47078098     1.90120
O864        O  0.17295083  0.01826546  0.92505952    -0.73700
O865        O  0.16982345  0.91739134  0.56864010    -0.73550
O866        O  0.17799591  0.91344868  0.93655229    -0.79210
O867        O  0.24185732  0.89465463  0.60199063    -0.77410
O868        O  0.24617053  0.96615639  0.49973479    -1.13540
O869        O  0.31480214  0.95215105  0.58435500    -0.72740
C870        C  0.35052879  0.97527221  0.55895102     0.97980
C871        C  0.20205291  0.05010218  0.89795372     0.94370
Al872      Al  0.18200060  0.96812582  0.49775554     1.55560
O873        O  0.30221258  0.97576812  0.89934231    -0.77360
C874        C  0.19643635  0.88965995  0.60541062     0.98540
C875        C  0.22000597  0.05794634  0.56871811     0.93420
O876        O  0.26191358  0.05876445  0.54005152    -0.82680
C877        C  0.28745556  0.23303878  0.74903353     0.00220
C878        C  0.24526004  0.19723250  0.74003168     0.00220
C879        C  0.30877751  0.25425115  0.81452910     0.02790
C880        C  0.29319647  0.30164456  0.83689234    -0.13360
C881        C  0.32401306  0.33203745  0.87881137     0.00290
C882        C  0.36980743  0.31544752  0.89729783    -0.11890
C883        C  0.38422503  0.26769159  0.88653347     0.02780
C884        C  0.35475057  0.23704841  0.84360820    -0.11310
H885        H  0.25789705  0.31564198  0.82007220     0.08370
H886        H  0.39239515  0.33828453  0.92921524     0.05900
H887        H  0.36866202  0.20158968  0.83045961     0.05750
C888        C  0.31687385  0.26226591  0.69531317     0.02790
C889        C  0.30399317  0.31198010  0.67918969    -0.13360
C890        C  0.33890689  0.34712375  0.65158590     0.00290
C891        C  0.38763195  0.33423622  0.64569030    -0.11890
C892        C  0.39868296  0.28462159  0.64320971     0.02780
C893        C  0.36504592  0.24849625  0.67312112    -0.11310
H894        H  0.26641496  0.32336237  0.68723433     0.08370
H895        H  0.41340504  0.36155847  0.62516321     0.05900
H896        H  0.37597103  0.21038578  0.67843415     0.05750
O897        O  0.49831557  0.16736704  0.96030134    -0.82140
C898        C  0.59958811  0.31888931  0.56655919     0.97210
O899        O  0.61805805  0.29617823  0.52153843    -0.71260
O900        O  0.59389544  0.22266378  0.58677075    -0.74850
Al901      Al  0.59132029  0.23395961  0.00012056     1.48980
C902        C  0.57340163  0.18576974  0.61075484     0.92470
O903        O  0.45994295  0.23214700  0.60260412    -0.81070
O904        O  0.46639747  0.28714793  0.92242719    -0.74630
Al905      Al  0.48291956  0.20169317  0.52954891     1.90120
O906        O  0.45444831  0.30462961  0.55481906    -0.73700
O907        O  0.56227198  0.32059023  0.92469172    -0.73550
O908        O  0.55368993  0.32940562  0.56305272    -0.79210
O909        O  0.59426933  0.24796241  0.91099776    -0.77410
O910        O  0.52732301  0.24800326  0.00649759    -1.13540
O911        O  0.57812850  0.16777821  0.98057616    -0.72740
C912        C  0.53852811  0.14647629  0.96130438     0.97980
C913        C  0.44049664  0.27348078  0.59900451     0.94370
Al914      Al  0.51002512  0.30751032  0.99190097     1.55560
O915        O  0.53162983  0.16958174  0.58823634    -0.77360
C916        C  0.59204013  0.29278691  0.89430600     0.98540
C917        C  0.42998637  0.25614147  0.92614684     0.93420
O918        O  0.42825224  0.22551377  0.97342371    -0.82680
C919        C  0.48886728  0.95959109  0.55113030     0.02790
C920        C  0.48805645  0.90891448  0.54429717    -0.13360
C921        C  0.44498055  0.88160613  0.55574627     0.00290
C922        C  0.40124988  0.90368971  0.56568723    -0.11890
C923        C  0.39893380  0.95416186  0.56010483     0.02780
C924        C  0.44216785  0.98252770  0.55260988    -0.11310
H925        H  0.51889674  0.89010742  0.52642313     0.08370
H926        H  0.36892459  0.88082308  0.07681394     0.05900
H927        H  0.43806761  0.02179960  0.54710079     0.05750
C928        C  0.37430861  0.87484600  0.76669777     0.02790
C929        C  0.38776456  0.83024153  0.79577569    -0.13360
C930        C  0.37966553  0.82356432  0.85926409     0.00290
C931        C  0.34403066  0.84970167  0.88859234    -0.11890
C932        C  0.33175905  0.89604280  0.86388265     0.02780
C933        C  0.34561821  0.90837378  0.80260105    -0.11310
H934        H  0.40755849  0.80214149  0.77310874     0.08370
H935        H  0.33402966  0.83813435  0.43672878     0.05900
H936        H  0.33886870  0.94619985  0.78823168     0.05750
C937        C  0.66923207  0.05739113  0.78758173    -0.20650
C938        C  0.65127426  0.10585332  0.78007439    -0.07220
C939        C  0.60256639  0.11358887  0.80232362     0.13650
C940        C  0.56949354  0.07321287  0.80520391    -0.20700
C941        C  0.58490670  0.02587671  0.79150007    -0.07220
C942        C  0.63610330  0.01699981  0.79188726     0.13640
C943        C  0.65599019  0.96549365  0.79308643    -0.24050
H944        H  0.70807774  0.05011705  0.78061981     0.14930
H945        H  0.53052754  0.07991688  0.81082507     0.14960
C946        C  0.58158343  0.16388169  0.81121476    -0.24000
H947        H  0.67889445  0.95967675  0.83689537     0.05170
H948        H  0.68027244  0.96041184  0.75160669     0.08400
H949        H  0.62551269  0.93703335  0.79297085     0.08400
H950        H  0.56239656  0.17776972  0.76743796     0.08380
H951        H  0.61145524  0.18949202  0.82717082     0.08380
H952        H  0.55237633  0.16275020  0.84699906     0.05160
C953        C  0.48806378  0.91590235  0.68685285    -0.20650
C954        C  0.47664111  0.96527762  0.69509974    -0.07220
C955        C  0.42576226  0.97897043  0.68928635     0.13650
C956        C  0.39011995  0.94159181  0.69326633    -0.20700
C957        C  0.40299578  0.89397897  0.71181505    -0.07220
C958        C  0.45229735  0.87901781  0.69886843     0.13640
C959        C  0.46927563  0.82626118  0.69583206    -0.24050
H960        H  0.52658865  0.90567638  0.68409317     0.14930
H961        H  0.35137208  0.95093094  0.69016569     0.14960
C962        C  0.40653835  0.03074702  0.67565482    -0.24000
H963        H  0.50181491  0.82393998  0.66442853     0.05170
H964        H  0.43934105  0.80178880  0.67605552     0.08400
H965        H  0.48285682  0.81221090  0.74283108     0.08400
H966        H  0.42908457  0.05151378  0.64086498     0.08380
H967        H  0.39996423  0.05259550  0.71786060     0.08380
H968        H  0.36880406  0.02923536  0.65395222     0.05160
C969        C  0.53060565  0.03663839  0.58246901    -0.20650
C970        C  0.53628364  0.98733631  0.56490636    -0.07220
C971        C  0.57921491  0.96316413  0.58979234     0.13650
C972        C  0.59746038  0.97912318  0.64813972    -0.20700
C973        C  0.57154601  0.01505526  0.67901857    -0.07220
C974        C  0.54198513  0.04831395  0.64429986     0.13640
C975        C  0.51372493  0.08882069  0.67527943    -0.24050
H976        H  0.50467636  0.06048894  0.55928950     0.14930
H977        H  0.62236492  0.95547250  0.67465240     0.14960
C978        C  0.59912882  0.91492257  0.56766510    -0.24000
H979        H  0.48824765  0.10808025  0.64182427     0.05170
H980        H  0.53800027  0.11586920  0.69884306     0.08400
H981        H  0.49014305  0.07387907  0.71258447     0.08400
H982        H  0.59541727  0.91145333  0.51511559     0.08380
H983        H  0.58129918  0.88315305  0.59377187     0.08380
H984        H  0.63914846  0.91277023  0.57937496     0.05160
C985        C  0.44904526  0.01859715  0.81757866    -0.20650
C986        C  0.48244738  0.98096455  0.80568882    -0.07220
C987        C  0.48136974  0.93716259  0.84433436     0.13650
C988        C  0.45537036  0.94041209  0.90095210    -0.20700
C989        C  0.44827075  0.98896376  0.92060362    -0.07220
C990        C  0.42301153  0.01638799  0.87337254     0.13640
C991        C  0.38819452  0.05747423  0.88584699    -0.24050
H992        H  0.44927752  0.05278910  0.79136826     0.14930
H993        H  0.45196560  0.90904190  0.93296057     0.14960
C994        C  0.51257881  0.89272216  0.83449939    -0.24000
H995        H  0.40380282  0.09362183  0.86820882     0.05170
H996        H  0.38170976  0.06099861  0.93738902     0.08400
H997        H  0.35267652  0.05073243  0.85955349     0.08400
H998        H  0.53572964  0.88477352  0.87768679     0.08380
H999        H  0.53833101  0.89792169  0.79427403     0.08380
H1000       H  0.48797248  0.86017196  0.82674115     0.05160
C1001       C  0.95727831  0.60469118  0.75511253    -0.20650
C1002       C  0.98950952  0.56981418  0.78323081    -0.07220
C1003       C  0.96676320  0.52321369  0.80287676     0.13650
C1004       C  0.92565975  0.50649042  0.76706770    -0.20700
C1005       C  0.90311834  0.54021083  0.72625044    -0.07220
C1006       C  0.90780550  0.59011642  0.74442056     0.13640
C1007       C  0.86602133  0.62633242  0.73492682    -0.24050
H1008       H  0.97111971  0.64010430  0.73724052     0.14930
H1009       H  0.91223347  0.46840644  0.77008022     0.14960
C1010       C  0.98403865  0.49024282  0.85665395    -0.24000
H1011       H  0.85613397  0.64408574  0.77891004     0.05170
H1012       H  0.83177542  0.60745600  0.71640446     0.08400
H1013       H  0.87632702  0.65828620  0.70442142     0.08400
H1014       H  0.01821617  0.50529229  0.87876307     0.08380
H1015       H  0.98830948  0.45221769  0.83968156     0.08380
H1016       H  0.95575510  0.48695985  0.89435097     0.05160
C1017       C  0.14897460  0.55289786  0.76134201    -0.20650
C1018       C  0.13399800  0.59001767  0.80275800    -0.07220
C1019       C  0.14935627  0.57665347  0.86467035     0.13650
C1020       C  0.12803119  0.53076242  0.88497881    -0.20700
C1021       C  0.11371148  0.49567227  0.83661152    -0.07220
C1022       C  0.14111575  0.50301067  0.78067799     0.13640
C1023       C  0.18108366  0.46716362  0.76661587    -0.24050
H1024       H  0.17193826  0.56196381  0.72134331     0.14930
H1025       H  0.12113529  0.52537238  0.93518212     0.14960
C1026       C  0.17359812  0.61368712  0.90937691    -0.24000
H1027       H  0.20115033  0.47803383  0.72238950     0.05170
H1028       H  0.16561645  0.42925339  0.76191604     0.08400
H1029       H  0.20887990  0.46708765  0.80644977     0.08400
H1030       H  0.17977276  0.59750836  0.95770424     0.08380
H1031       H  0.21024591  0.62642676  0.89669218     0.08380
H1032       H  0.15357612  0.64863683  0.90879518     0.05160
C1033       C  0.02935447  0.50207719  0.70318711    -0.20650
C1034       C  0.05295099  0.54878338  0.70885269    -0.07220
C1035       C  0.07267672  0.57159798  0.65279166     0.13650
C1036       C  0.07083062  0.54391060  0.59697200    -0.20700
C1037       C  0.04571732  0.49788796  0.59664682    -0.07220
C1038       C  0.01269754  0.48555379  0.64499398     0.13640
C1039       C  0.97977366  0.43902415  0.64387570    -0.24050
H1040       H  0.02175748  0.47892789  0.74359547     0.14930
H1041       H  0.09918617  0.55047595  0.56236430     0.14960
C1042       C  0.09712303  0.62211445  0.65050867    -0.24000
H1043       H  0.94879655  0.44110854  0.67739483     0.05170
H1044       H  0.00102879  0.40610446  0.65923170     0.08400
H1045       H  0.96337140  0.43379804  0.59538969     0.08400
H1046       H  0.09904016  0.63926829  0.69745445     0.08380
H1047       H  0.07564533  0.64695100  0.61861758     0.08380
H1048       H  0.13540215  0.61987841  0.63234894     0.05160
C1049       C  0.02598438  0.66527566  0.84355733    -0.20650
C1050       C  0.06247290  0.63188566  0.85929342    -0.07220
C1051       C  0.05660269  0.60755743  0.91921539     0.13650
C1052       C  0.01060852  0.58654999  0.92951064    -0.20700
C1053       C  0.96972449  0.60686357  0.89815982    -0.07220
C1054       C  0.97771497  0.65445925  0.86410446     0.13640
C1055       C  0.94075439  0.69271518  0.84139019    -0.24050
H1056       H  0.03187834  0.69201480  0.80486421     0.14930
H1057       H  0.00597953  0.55922245  0.96796547     0.14960
C1058       C  0.08020180  0.62769211  0.97912642    -0.24000
H1059       H  0.94469154  0.70246198  0.78999769     0.05170
H1060       H  0.94806153  0.72753434  0.86742772     0.08400
H1061       H  0.90233220  0.68208782  0.84733545     0.08400
H1062       H  0.11088530  0.60534316  0.99521656     0.08380
H1063       H  0.05440697  0.62511253  0.01945235     0.08380
H1064       H  0.09377187  0.66644520  0.97300965     0.05160
loop_ 
_geom_bond_atom_site_label_1 
_geom_bond_atom_site_label_2 
_geom_bond_distance 
_geom_bond_site_symmetry_2 
_ccdc_geom_bond_type 
C1            C2   1.390       .  D
C1          C486   1.527       .  S
C1          C518   1.510       .  S
C2          C470   1.494   1_455  S
C2          C502   1.482       .  S
C3           C43   1.589       .  S
C3            C4   1.445       .  A
C3            C8   1.443       .  A
C4            C5   1.450       .  A
C4            H9   1.082       .  S
C5            C6   1.385       .  A
C5           C37   1.514       .  S
C6            C7   1.387       .  A
C6           H10   1.084       .  S
C7            C8   1.450       .  A
C7          C224   1.517       .  S
C8           H11   1.078       .  S
C12          C43   1.602       .  S
C12          C13   1.445       .  A
C12          C17   1.464       .  A
C13          C14   1.445       .  A
C13          H18   1.075       .  S
C14          C15   1.384       .  A
C14         C242   1.521       .  S
C15          C16   1.395       .  A
C15          H19   1.087       .  S
C16          C17   1.459       .  A
C16          C41   1.543       .  S
C17          H20   1.082       .  S
O21          C36   1.278       .  A
O21        Al561   1.899   1_454  S
C22         C307   1.497       .  S
C22          O32   1.295       .  A
C22          O23   1.257       .  A
O23        Al557   1.865       .  S
O24          C26   1.250       .  A
O24        Al557   1.804       .  S
Al25         O33   1.879   1_556  S
Al25         O35   1.829   1_556  S
Al25        O555   1.865       .  S
Al25        O556   1.804       .  S
Al25         O34   1.777       .  S
C26          C96   1.532       .  S
C26          O39   1.262       .  A
O27          C37   1.249       .  A
O27         Al29   1.872       .  S
O28          C41   1.284       .  A
O28         Al38   1.974   1_654  S
Al29         O39   2.009   1_655  S
Al29        O553   1.899   1_655  S
Al29        O574   1.969       .  S
Al29        O566   1.807   1_655  S
O30          C37   1.290       .  A
O30        Al570   1.996   1_655  S
O31          C40   1.287       .  A
O31         Al38   2.064   1_554  S
O32        Al570   2.019       .  S
O33          C40   1.243       .  A
O34         Al38   1.728       .  S
O34        Al561   1.807   1_455  S
O35          C36   1.251       .  A
C36          C87   1.421       .  S
Al38        O562   1.996   1_455  S
Al38        O564   2.019       .  S
C40         C316   1.535       .  S
C41          O42   1.269       .  A
O42        Al561   1.969   1_554  S
C43          C44   1.489       .  D
C44          C45   1.610       .  S
C44          C54   1.562       .  S
C45          C46   1.448       .  A
C45          C50   1.457       .  A
C46          C47   1.458       .  A
C46          H51   1.075       .  S
C47          C48   1.389       .  A
C47         C384   1.524       .  S
C48          C49   1.376       .  A
C48          H52   1.083       .  S
C49          C50   1.461       .  A
C49          C83   1.532       .  S
C50          H53   1.082       .  S
C54          C55   1.438       .  A
C54          C59   1.425       .  A
C55          C56   1.444       .  A
C55          H60   1.082       .  S
C56          C57   1.383       .  A
C56          C79   1.490       .  S
C57          C58   1.368       .  A
C57          H61   1.087       .  S
C58          C59   1.435       .  A
C58         C366   1.481       .  S
C59          H62   1.071       .  S
O63          C78   1.274       .  A
O63        Al603   1.903       .  S
C64         C249   1.549       .  S
C64          O74   1.313       .  A
C64          O65   1.253       .  A
O65        Al599   1.908   1_554  S
O66          C68   1.246       .  A
O66        Al599   1.802   1_554  S
Al67         O75   1.843       .  S
Al67         O77   1.877       .  S
Al67        O597   1.908       .  S
Al67        O598   1.802       .  S
Al67         O76   1.764       .  S
C68         C187   1.398       .  S
C68          O81   1.246       .  A
O69          C79   1.264       .  A
O69         Al71   1.914   1_554  S
O70          C83   1.304       .  A
O70         Al80   2.066       .  S
Al71         O81   1.838   1_556  S
Al71        O595   1.903       .  S
Al71        O616   1.865       .  S
Al71        O608   1.796       .  S
O72          C79   1.277       .  A
O72        Al612   1.937   1_554  S
O73          C82   1.280       .  A
O73         Al80   2.003       .  S
O74        Al612   2.096   1_554  S
O75          C82   1.243       .  A
O76         Al80   1.695       .  S
O76        Al603   1.796       .  S
O77          C78   1.244       .  A
C78         C196   1.437       .  S
Al80        O604   1.937       .  S
Al80        O606   2.096       .  S
C82         C258   1.482       .  S
C83          O84   1.243       .  A
O84        Al603   1.865       .  S
C85          C86   1.363       .  A
C85          C90   1.403       .  A
C85         C505   1.427       .  S
C86          C87   1.386       .  A
C86          H91   1.086       .  S
C87          C88   1.412       .  A
C88          C89   1.397       .  A
C88         H624   1.084       .  S
C89          C90   1.379       .  A
C89         C168   1.449       .  S
C90          H93   1.073       .  S
H92         C620   1.084       .  S
C94          C95   1.451       .  A
C94          C99   1.353       .  A
C94         C489   1.512       .  S
C95          C96   1.435       .  A
C95         H100   1.076       .  S
C96          C97   1.417       .  A
C97          C98   1.424       .  A
C97         H633   1.083       .  S
C98          C99   1.381       .  A
C98         C178   1.363       .  S
C99         H102   1.078       .  S
H101        C629   1.083       .  S
C103        C143   1.641       .  S
C103        C104   1.489       .  A
C103        C108   1.448       .  A
C104        C105   1.491       .  A
C104        H109   1.070       .  S
C105        C106   1.392       .  A
C105        C137   1.599       .  S
C106        C107   1.391       .  A
C106        H110   1.085       .  S
C107        C108   1.448       .  A
C107        C324   1.520       .  S
C108        H111   1.082       .  S
C112        C143   1.613       .  S
C112        C113   1.450       .  A
C112        C117   1.458       .  A
C113        C114   1.451       .  A
C113        H118   1.074       .  S
C114        C115   1.384       .  A
C114        C141   1.519       .  S
C115        C116   1.382       .  A
C115        H119   1.084       .  S
C116        C117   1.465       .  A
C116        C342   1.532       .  S
C117        H120   1.082       .  S
O121        C136   1.251       .  A
O121       Al129   1.889       .  S
C122        C207   1.546       .  S
C122        O132   1.290       .  A
C122        O123   1.270       .  A
O123       Al657   1.934       .  S
O124        C126   1.236       .  A
O124       Al657   1.792       .  S
Al125       O133   1.841       .  S
Al125       O135   1.794       .  S
Al125       O655   1.934       .  S
Al125       O656   1.792   1_554  S
Al125       O134   1.799       .  S
C126        C198   1.413       .  S
C126        O139   1.279       .  A
O127        C137   1.259       .  A
O127       Al661   1.985   1_455  S
O128        C141   1.295       .  A
O128       Al138   1.983   1_455  S
Al129       O142   1.925   1_655  S
Al129       O659   1.985   1_654  S
Al129       O671   1.844   1_554  S
Al129       O134   1.751       .  S
O130        C137   1.286       .  A
O130       Al670   2.029   1_455  S
O131        C140   1.298       .  A
O131       Al138   2.081       .  S
O132       Al670   2.036       .  S
O133        C140   1.225       .  A
O134       Al138   1.737       .  S
O135        C136   1.236       .  A
C136        C189   1.459       .  S
Al138       O662   2.029   1_654  S
Al138       O664   2.036   1_554  S
O139       Al661   1.844       .  S
C140        C216   1.505       .  S
C141        O142   1.267       .  A
C143        C144   1.533       .  D
C144        C145   1.618       .  S
C144        C154   1.607       .  S
C145        C146   1.472       .  A
C145        C150   1.442       .  A
C146        C147   1.472       .  A
C146        H151   1.069       .  S
C147        C148   1.386       .  A
C147        C179   1.560       .  S
C148        C149   1.388       .  A
C148        H152   1.083       .  S
C149        C150   1.447       .  A
C149        C284   1.512       .  S
C150        H153   1.083       .  S
C154        C155   1.462       .  A
C154        C159   1.441       .  A
C155        C156   1.452       .  A
C155        H160   1.072       .  S
C156        C157   1.375       .  A
C156        C183   1.530       .  S
C157        C158   1.376       .  A
C157        H161   1.087       .  S
C158        C159   1.455       .  A
C158        C266   1.493       .  S
C159        H162   1.081       .  S
O163        C178   1.254       .  A
O163       Al703   1.851       .  S
C164        C358   1.474       .  S
C164        O174   1.274       .  A
C164        O165   1.236       .  A
O165       Al699   1.818       .  S
O166        C168   1.260       .  A
O166       Al699   1.877       .  S
Al167       O175   1.869       .  S
Al167       O177   1.796       .  S
Al167       O697   1.818       .  S
Al167       O698   1.877       .  S
Al167       O176   1.829       .  S
C168        O181   1.279       .  A
O169        C179   1.257       .  A
O169       Al171   1.932       .  S
O170        C183   1.278       .  A
O170       Al180   1.980       .  S
Al171       O181   1.852       .  S
Al171       O695   1.851   1_554  S
Al171       O716   1.927   1_554  S
Al171       O708   1.750       .  S
O172        C179   1.299       .  A
O172       Al712   2.042       .  S
O173        C182   1.309       .  A
O173       Al180   2.063       .  S
O174       Al712   1.998       .  S
O175        C182   1.247       .  A
O176       Al180   1.710       .  S
O176       Al703   1.750       .  S
O177        C178   1.231       .  A
Al180       O704   2.042       .  S
Al180       O706   1.998       .  S
C182        C349   1.511       .  S
C183        O184   1.256       .  A
O184       Al703   1.927       .  S
C185        C186   1.365       .  A
C185        C190   1.422       .  A
C185        C473   1.474       .  S
C186        C187   1.380       .  A
C186        H191   1.084       .  S
C187        C188   1.398       .  A
C188        C189   1.398       .  A
C188        H724   1.085       .  S
C189        C190   1.382       .  A
C190        H193   1.060       .  S
H192        C720   1.085       .  S
C194        C195   1.386       .  A
C194        C199   1.332       .  A
C194        C521   1.484       .  S
C195        C196   1.396       .  A
C195        H200   1.075       .  S
C196        C197   1.409       .  A
C197        C198   1.402       .  A
C197        H733   1.084       .  S
C198        C199   1.388       .  A
C199        H202   1.069       .  S
H201        C729   1.084       .  S
C203        C204   1.352   1_565  D
C203        C422   1.464       .  S
C203        C454   1.410       .  S
C204        C409   1.453       .  S
C204        C441   1.434       .  S
C205        C245   1.623       .  S
C205        C206   1.474       .  A
C205        C210   1.452       .  A
C206        C207   1.473       .  A
C206        H211   1.082       .  S
C207        C208   1.376       .  A
C208        C209   1.388       .  A
C208        H212   1.087       .  S
C209        C210   1.450       .  A
C209        C239   1.517       .  S
C210        H213   1.082       .  S
C214        C245   1.584       .  S
C214        C215   1.437       .  A
C214        C219   1.443       .  A
C215        C216   1.449       .  A
C215        H220   1.083       .  S
C216        C217   1.370       .  A
C217        C218   1.387       .  A
C217        H221   1.084       .  S
C218        C219   1.452       .  A
C218        C243   1.502       .  S
C219        H222   1.083       .  S
O223        C238   1.266       .  A
O223       Al231   1.926   1_545  S
C224        O234   1.295       .  A
C224        O225   1.252       .  A
O225       Al759   1.874       .  S
O226        C228   1.274       .  A
O226       Al759   1.888       .  S
Al227       O235   1.966   1_556  S
Al227       O237   1.819   1_556  S
Al227       O757   1.874       .  S
Al227       O758   1.888       .  S
Al227       O236   1.677       .  S
C228        C298   1.445       .  S
C228        O241   1.265   1_545  A
O229        C239   1.271       .  A
O229       Al763   1.938       .  S
O230        C243   1.347       .  A
O230       Al240   2.208   1_564  S
Al231       O244   1.798       .  S
Al231       O761   1.938   1_554  S
Al231       O773   1.894   1_554  S
Al231       O236   1.606   1_564  S
O232        C239   1.296       .  A
O232       Al772   1.992   1_565  S
O233        C242   1.293       .  A
O233       Al240   1.989   1_554  S
O234       Al772   2.018       .  S
O235        C242   1.281       .  A
O236       Al240   1.716       .  S
O237        C238   1.255       .  A
C238        C289   1.428       .  S
Al240       O764   1.992   1_545  S
Al240       O766   2.018       .  S
O241       Al763   1.894       .  S
C243        O244   1.298       .  A
C245        C246   1.509       .  D
C246        C247   1.618       .  S
C246        C256   1.589       .  S
C247        C248   1.471       .  A
C247        C252   1.455       .  A
C248        C249   1.470       .  A
C248        H253   1.082       .  S
C249        C250   1.377       .  A
C250        C251   1.386       .  A
C250        H254   1.086       .  S
C251        C252   1.450       .  A
C251        C280   1.517       .  S
C252        H255   1.082       .  S
C256        C257   1.432       .  A
C256        C261   1.457       .  A
C257        C258   1.440       .  A
C257        H262   1.083       .  S
C258        C259   1.372       .  A
C259        C260   1.386       .  A
C259        H263   1.086       .  S
C260        C261   1.462       .  A
C260        C270   1.524       .  S
C261        H264   1.082       .  S
O265        C280   1.274       .  A
O265       Al805   1.971   1_554  S
C266        O276   1.257       .  A
C266        O267   1.279       .  A
O267       Al801   1.978       .  S
O268        C270   1.291       .  A
O268       Al801   2.006       .  S
Al269       O277   2.039       .  S
Al269       O279   1.949       .  S
Al269       O799   1.978   1_554  S
Al269       O800   2.006   1_554  S
Al269       O278   1.710   1_554  S
C270        O283   1.249       .  A
O271        C281   1.283       .  A
O271       Al273   1.975       .  S
O272        C285   1.247       .  A
O272       Al282   1.836       .  S
Al273       O283   1.895       .  S
Al273       O797   1.971       .  S
Al273       O818   1.806       .  S
Al273       O810   1.767       .  S
O274        C281   1.234       .  A
O274       Al814   1.794       .  S
O275        C284   1.251       .  A
O275       Al282   1.882       .  S
O276       Al814   1.885       .  S
O277        C284   1.299       .  A
O278       Al282   1.799   1_556  S
O278       Al805   1.767       .  S
O279        C280   1.280       .  A
C281        C398   1.424       .  S
Al282       O806   1.794   1_554  S
Al282       O808   1.885   1_554  S
C285        C389   1.402       .  S
C285        O286   1.235       .  A
O286       Al805   1.806   1_554  S
C287        C288   1.411       .  A
C287        C292   1.410       .  A
C287        C406   1.502       .  S
C288        C289   1.391       .  A
C288        H293   1.083       .  S
C289        C290   1.385       .  A
C290        C291   1.369       .  A
C290        H826   1.082       .  S
C291        C292   1.403       .  A
C291        C370   1.447       .  S
C292        H295   1.077       .  S
H294        C822   1.082       .  S
C296        C297   1.438   1_545  A
C296        C301   1.396       .  A
C296        C457   1.524   1_545  S
C297        C298   1.396   1_565  A
C297        H302   1.075       .  S
C298        C299   1.369       .  A
C299        C300   1.347       .  A
C299        H835   1.072       .  S
C300        C301   1.376       .  A
C300        C380   1.416       .  S
C301        H304   1.075       .  S
H303        C831   1.072       .  S
C305        C346   1.569       .  S
C305        C306   1.425       .  A
C305        C310   1.439       .  A
C306        C307   1.438       .  A
C306        H311   1.083       .  S
C307        C308   1.398       .  A
C308        C309   1.389       .  A
C308        H312   1.084       .  S
C309        C310   1.452       .  A
C309        C339   1.514       .  S
C310        H313   1.083       .  S
C314        C346   1.595       .  S
C314        C315   1.459       .  A
C314        C319   1.445       .  A
C315        C316   1.457       .  A
C315        H320   1.082       .  S
C316        C317   1.391       .  A
C317        C318   1.402       .  A
C317        H321   1.086       .  S
C318        C319   1.445       .  A
C318        C343   1.521       .  S
C319        H322   1.083       .  S
O323        C338   1.237   1_545  A
O323       Al331   1.853   1_554  S
C324        O334   1.293       .  A
C324        O325   1.275       .  A
O325       Al859   1.954       .  S
O326        C328   1.242       .  A
O326       Al859   1.822       .  S
Al327       O335   1.862       .  S
Al327       O337   1.864       .  S
Al327       O857   1.954   1_554  S
Al327       O858   1.822   1_554  S
Al327       O336   1.776   1_554  S
C328        C400   1.464       .  S
C328        O341   1.272       .  A
O329        C339   1.221       .  A
O329       Al863   1.796       .  S
O330        C343   1.300       .  A
O330       Al340   1.982   1_544  S
Al331       O344   1.962   1_556  S
Al331       O861   1.796       .  S
Al331       O873   1.969   1_545  S
Al331       O336   1.786   1_545  S
O332        C339   1.279       .  A
O332       Al872   2.031   1_545  S
O333        C342   1.285       .  A
O333       Al340   2.023   1_554  S
O334       Al872   1.979       .  S
O335        C342   1.230       .  A
O336       Al340   1.730       .  S
O337        C338   1.253       .  A
C338        C391   1.437       .  S
Al340       O864   2.031   1_565  S
Al340       O866   1.979       .  S
O341       Al863   1.969   1_565  S
C343        O344   1.287       .  A
C345        C346   1.485       .  D
C345        C347   1.590       .  S
C345        C356   1.573       .  S
C347        C348   1.450       .  A
C347        C352   1.453       .  A
C348        C349   1.451       .  A
C348        H353   1.083       .  S
C349        C350   1.370       .  A
C350        C351   1.383       .  A
C350        H354   1.087       .  S
C351        C352   1.448       .  A
C351        C385   1.508       .  S
C352        H355   1.082       .  S
C356        C357   1.429       .  A
C356        C361   1.447       .  A
C357        C358   1.438       .  A
C357        H362   1.083       .  S
C358        C359   1.375       .  A
C359        C360   1.385       .  A
C359        H363   1.087       .  S
C360        C361   1.453       .  A
C360        C381   1.511       .  S
C361        H364   1.082       .  S
O365        C380   1.234       .  A
O365       Al905   1.800       .  S
C366        O376   1.276       .  A
C366        O367   1.254       .  A
O367       Al901   1.873       .  S
O368        C370   1.229       .  A
O368       Al901   1.833       .  S
Al369       O377   1.898       .  S
Al369       O379   1.869       .  S
Al369       O899   1.873       .  S
Al369       O900   1.833       .  S
Al369       O378   1.783       .  S
C370        O383   1.282       .  A
O371        C381   1.247       .  A
O371       Al373   1.876       .  S
O372        C385   1.275       .  A
O372       Al382   1.934       .  S
Al373       O383   1.984       .  S
Al373       O897   1.800   1_554  S
Al373       O918   1.979   1_554  S
Al373       O910   1.773       .  S
O374        C381   1.291       .  A
O374       Al914   2.010   1_554  S
O375        C384   1.298       .  A
O375       Al382   2.027       .  S
O376       Al914   1.973   1_554  S
O377        C384   1.257       .  A
O378       Al382   1.707       .  S
O378       Al905   1.773       .  S
O379        C380   1.263       .  A
Al382       O906   2.010       .  S
Al382       O908   1.973       .  S
C385        O386   1.277       .  A
O386       Al905   1.979       .  S
C387        C388   1.381       .  A
C387        C392   1.418       .  A
C387        C438   1.491       .  S
C388        C389   1.380       .  A
C388        H393   1.064       .  S
C389        C390   1.356       .  A
C390        C391   1.370       .  A
C390        H926   1.080       .  S
C391        C392   1.386       .  A
C392        H395   1.074   1_565  S
H394        C922   1.080       .  S
C396        C397   1.392       .  A
C396        C401   1.440       .  A
C396        C425   1.472       .  S
C397        C398   1.358       .  A
C397        H402   1.065       .  S
C398        C399   1.370       .  A
C399        C400   1.391       .  A
C399        H935   1.085       .  S
C400        C401   1.374       .  A
C401        H404   1.079       .  S
H403        C931   1.085       .  S
C405        C406   1.414       .  A
C405        C410   1.394       .  A
C405        H412   1.083       .  S
C406        C407   1.422       .  A
C407        C408   1.391       .  A
C407        C414   1.504       .  S
C408        C409   1.394       .  A
C408        H413   1.079       .  S
C409        C410   1.406       .  A
C410        C411   1.505   1_545  S
C411        H415   1.106       .  S
C411        H416   1.110       .  S
C411        H417   1.110       .  S
C414        H418   1.107       .  S
C414        H419   1.100       .  S
C414        H420   1.095       .  S
C421        C422   1.394       .  A
C421        C426   1.390       .  A
C421        H428   1.084       .  S
C422        C423   1.431       .  A
C423        C424   1.377       .  A
C423        C430   1.525   1_565  S
C424        C425   1.388       .  A
C424        H429   1.081       .  S
C425        C426   1.431       .  A
C426        C427   1.513       .  S
C427        H431   1.109       .  S
C427        H432   1.110       .  S
C427        H433   1.106       .  S
C430        H434   1.092       .  S
C430        H435   1.094       .  S
C430        H436   1.106       .  S
C437        C438   1.404   1_545  A
C437        C442   1.367       .  A
C437        H444   1.066       .  S
C438        C439   1.428       .  A
C439        C440   1.382       .  A
C439        C446   1.510       .  S
C440        C441   1.390   1_565  A
C440        H445   1.077       .  S
C441        C442   1.399       .  A
C442        C443   1.515       .  S
C443        H447   1.103       .  S
C443        H448   1.089       .  S
C443        H449   1.080       .  S
C446        H450   1.109       .  S
C446        H451   1.110       .  S
C446        H452   1.104       .  S
C453        C454   1.406   1_545  A
C453        C458   1.373       .  A
C453        H460   1.064       .  S
C454        C455   1.419       .  A
C455        C456   1.393       .  A
C455        C462   1.505       .  S
C456        C457   1.404       .  A
C456        H461   1.072       .  S
C457        C458   1.400   1_565  A
C458        C459   1.504       .  S
C459        H463   1.112       .  S
C459        H464   1.103       .  S
C459        H465   1.108       .  S
C462        H466   1.109       .  S
C462        H467   1.105       .  S
C462        H468   1.101       .  S
C469        C470   1.410       .  A
C469        C474   1.395       .  A
C469        H476   1.080       .  S
C470        C471   1.441       .  A
C471        C472   1.397       .  A
C471        C478   1.495       .  S
C472        C473   1.380       .  A
C472        H477   1.083       .  S
C473        C474   1.413       .  A
C474        C475   1.519       .  S
C475        H479   1.089       .  S
C475        H480   1.110       .  S
C475        H481   1.095       .  S
C478        H482   1.095   1_655  S
C478        H483   1.105       .  S
C478        H484   1.107       .  S
C485        C486   1.413       .  A
C485        C490   1.411       .  A
C485        H492   1.070       .  S
C486        C487   1.396       .  A
C487        C488   1.413       .  A
C487        C494   1.514       .  S
C488        C489   1.444       .  A
C488        H493   1.077       .  S
C489        C490   1.403       .  A
C490        C491   1.505       .  S
C491        H495   1.110       .  S
C491        H496   1.102       .  S
C491        H497   1.110       .  S
C494        H498   1.105       .  S
C494        H499   1.072       .  S
C494        H500   1.100       .  S
C501        C502   1.405       .  A
C501        C506   1.371       .  A
C501        H508   1.060       .  S
C502        C503   1.418       .  A
C503        C504   1.402       .  A
C503        C510   1.501       .  S
C504        C505   1.401       .  A
C504        H509   1.071       .  S
C505        C506   1.388       .  A
C506        C507   1.520   1_455  S
C507        H511   1.103       .  S
C507        H512   1.110   1_655  S
C507        H513   1.110       .  S
C510        H514   1.096       .  S
C510        H515   1.103       .  S
C510        H516   1.109       .  S
C517        C518   1.383       .  A
C517        C522   1.398   1_455  A
C517        H524   1.084       .  S
C518        C519   1.412       .  A
C519        C520   1.367       .  A
C519        C526   1.503       .  S
C520        C521   1.391   1_455  A
C520        H525   1.087       .  S
C521        C522   1.470       .  A
C522        C523   1.517       .  S
C523        H527   1.108       .  S
C523        H528   1.110       .  S
C523        H529   1.075       .  S
C526        H530   1.081       .  S
C526        H531   1.103       .  S
C526        H532   1.106       .  S
C533        C534   1.390       .  D
C533       C1018   1.527       .  S
C533       C1050   1.510       .  S
C534       C1002   1.494   1_455  S
C534       C1034   1.482       .  S
C535        C575   1.589       .  S
C535        C536   1.445       .  A
C535        C540   1.443       .  A
C536        C537   1.450       .  A
C536        H541   1.082       .  S
C537        C538   1.385       .  A
C537        C569   1.514       .  S
C538        C539   1.387       .  A
C538        H542   1.084       .  S
C539        C540   1.450       .  A
C539        C756   1.517       .  S
C540        H543   1.078       .  S
C544        C575   1.602       .  S
C544        C545   1.445       .  A
C544        C549   1.464       .  A
C545        C546   1.445       .  A
C545        H550   1.075       .  S
C546        C547   1.384       .  A
C546        C774   1.521       .  S
C547        C548   1.395       .  A
C547        H551   1.087       .  S
C548        C549   1.459       .  A
C548        C573   1.543       .  S
C549        H552   1.082       .  S
O553        C568   1.278       .  A
C554        C839   1.497       .  S
C554        O564   1.295       .  A
C554        O555   1.257       .  A
O556        C558   1.250       .  A
Al557       O565   1.879       .  S
Al557       O567   1.829       .  S
Al557       O566   1.777       .  S
C558        C628   1.532       .  S
C558        O571   1.262       .  A
O559        C569   1.249       .  A
O559       Al561   1.872       .  S
O560        C573   1.284       .  A
O560       Al570   1.974   1_655  S
Al561       O571   2.009   1_655  S
O562        C569   1.290       .  A
O563        C572   1.287       .  A
O563       Al570   2.064       .  S
O565        C572   1.243       .  A
O566       Al570   1.728       .  S
O567        C568   1.251       .  A
C568        C619   1.421       .  S
C572        C848   1.535       .  S
C573        O574   1.269       .  A
C575        C576   1.489       .  D
C576        C577   1.610       .  S
C576        C586   1.562       .  S
C577        C578   1.448       .  A
C577        C582   1.457       .  A
C578        C579   1.458       .  A
C578        H583   1.075       .  S
C579        C580   1.389       .  A
C579        C916   1.524       .  S
C580        C581   1.376       .  A
C580        H584   1.083       .  S
C581        C582   1.461       .  A
C581        C615   1.532       .  S
C582        H585   1.082       .  S
C586        C587   1.438       .  A
C586        C591   1.425       .  A
C587        C588   1.444       .  A
C587        H592   1.082       .  S
C588        C589   1.383       .  A
C588        C611   1.490       .  S
C589        C590   1.368       .  A
C589        H593   1.087       .  S
C590        C591   1.435       .  A
C590        C898   1.481       .  S
C591        H594   1.071       .  S
O595        C610   1.274       .  A
C596        C781   1.549       .  S
C596        O606   1.313       .  A
C596        O597   1.253       .  A
O598        C600   1.246       .  A
Al599       O607   1.843       .  S
Al599       O609   1.877       .  S
Al599       O608   1.764       .  S
C600        C719   1.398       .  S
C600        O613   1.246       .  A
O601        C611   1.264       .  A
O601       Al603   1.914       .  S
O602        C615   1.304       .  A
O602       Al612   2.066       .  S
Al603       O613   1.838       .  S
O604        C611   1.277       .  A
O605        C614   1.280       .  A
O605       Al612   2.003       .  S
O607        C614   1.243       .  A
O608       Al612   1.695       .  S
O609        C610   1.244       .  A
C610        C728   1.437       .  S
C614        C790   1.482       .  S
C615        O616   1.243       .  A
C617        C618   1.363       .  A
C617        C622   1.403       .  A
C617       C1037   1.427       .  S
C618        C619   1.386       .  A
C618        H623   1.086       .  S
C619        C620   1.412       .  A
C620        C621   1.397       .  A
C621        C622   1.379       .  A
C621        C700   1.449       .  S
C622        H625   1.073       .  S
C626        C627   1.451       .  A
C626        C631   1.353       .  A
C626       C1021   1.512       .  S
C627        C628   1.435       .  A
C627        H632   1.076       .  S
C628        C629   1.417       .  A
C629        C630   1.424       .  A
C630        C631   1.381       .  A
C630        C710   1.363       .  S
C631        H634   1.078       .  S
C635        C675   1.641       .  S
C635        C636   1.489       .  A
C635        C640   1.448       .  A
C636        C637   1.491       .  A
C636        H641   1.070       .  S
C637        C638   1.392       .  A
C637        C669   1.599       .  S
C638        C639   1.391       .  A
C638        H642   1.085       .  S
C639        C640   1.448       .  A
C639        C856   1.520       .  S
C640        H643   1.082       .  S
C644        C675   1.613       .  S
C644        C645   1.450       .  A
C644        C649   1.458       .  A
C645        C646   1.451       .  A
C645        H650   1.074       .  S
C646        C647   1.384       .  A
C646        C673   1.519       .  S
C647        C648   1.382       .  A
C647        H651   1.084       .  S
C648        C649   1.465       .  A
C648        C874   1.532       .  S
C649        H652   1.082       .  S
O653        C668   1.251       .  A
O653       Al661   1.889       .  S
C654        C739   1.546       .  S
C654        O664   1.290       .  A
C654        O655   1.270   1_556  A
O656        C658   1.236       .  A
Al657       O665   1.841       .  S
Al657       O667   1.794       .  S
Al657       O666   1.799       .  S
C658        C730   1.413       .  S
C658        O671   1.279       .  A
O659        C669   1.259       .  A
O660        C673   1.295       .  A
O660       Al670   1.983   1_455  S
Al661       O674   1.925   1_655  S
Al661       O666   1.751       .  S
O662        C669   1.286       .  A
O663        C672   1.298       .  A
O663       Al670   2.081       .  S
O665        C672   1.225       .  A
O666       Al670   1.737       .  S
O667        C668   1.236       .  A
C668        C721   1.459       .  S
C672        C748   1.505       .  S
C673        O674   1.267       .  A
C675        C676   1.533       .  D
C676        C677   1.618       .  S
C676        C686   1.607       .  S
C677        C678   1.472       .  A
C677        C682   1.442       .  A
C678        C679   1.472       .  A
C678        H683   1.069       .  S
C679        C680   1.386       .  A
C679        C711   1.560       .  S
C680        C681   1.388       .  A
C680        H684   1.083       .  S
C681        C682   1.447       .  A
C681        C816   1.512       .  S
C682        H685   1.083       .  S
C686        C687   1.462       .  A
C686        C691   1.441       .  A
C687        C688   1.452       .  A
C687        H692   1.072       .  S
C688        C689   1.375       .  A
C688        C715   1.530       .  S
C689        C690   1.376       .  A
C689        H693   1.087       .  S
C690        C691   1.455       .  A
C690        C798   1.493       .  S
C691        H694   1.081       .  S
O695        C710   1.254       .  A
C696        C890   1.474       .  S
C696        O706   1.274       .  A
C696        O697   1.236       .  A
O698        C700   1.260       .  A
Al699       O707   1.869   1_554  S
Al699       O709   1.796   1_554  S
Al699       O708   1.829       .  S
C700        O713   1.279       .  A
O701        C711   1.257       .  A
O701       Al703   1.932       .  S
O702        C715   1.278       .  A
O702       Al712   1.980   1_556  S
Al703       O713   1.852       .  S
O704        C711   1.299       .  A
O705        C714   1.309       .  A
O705       Al712   2.063   1_556  S
O707        C714   1.247       .  A
O708       Al712   1.710       .  S
O709        C710   1.231       .  A
C714        C881   1.511       .  S
C715        O716   1.256       .  A
C717        C718   1.365       .  A
C717        C722   1.422       .  A
C717       C1005   1.474       .  S
C718        C719   1.380       .  A
C718        H723   1.084       .  S
C719        C720   1.398       .  A
C720        C721   1.398       .  A
C721        C722   1.382       .  A
C722        H725   1.060       .  S
C726        C727   1.386       .  A
C726        C731   1.332       .  A
C726       C1053   1.484       .  S
C727        C728   1.396       .  A
C727        H732   1.075       .  S
C728        C729   1.409       .  A
C729        C730   1.402       .  A
C730        C731   1.388       .  A
C731        H734   1.069   1_556  S
C735        C736   1.352   1_565  D
C735        C954   1.464       .  S
C735        C986   1.410       .  S
C736        C941   1.453       .  S
C736        C973   1.434       .  S
C737        C777   1.623       .  S
C737        C738   1.474       .  A
C737        C742   1.452       .  A
C738        C739   1.473       .  A
C738        H743   1.082       .  S
C739        C740   1.376       .  A
C740        C741   1.388       .  A
C740        H744   1.087       .  S
C741        C742   1.450       .  A
C741        C771   1.517       .  S
C742        H745   1.082       .  S
C746        C777   1.584       .  S
C746        C747   1.437       .  A
C746        C751   1.443       .  A
C747        C748   1.449       .  A
C747        H752   1.083       .  S
C748        C749   1.370       .  A
C749        C750   1.387       .  A
C749        H753   1.084       .  S
C750        C751   1.452       .  A
C750        C775   1.502       .  S
C751        H754   1.083       .  S
O755        C770   1.266       .  A
O755       Al763   1.926   1_545  S
C756        O766   1.295       .  A
C756        O757   1.252       .  A
O758        C760   1.274       .  A
Al759       O767   1.966       .  S
Al759       O769   1.819       .  S
Al759       O768   1.677       .  S
C760        C830   1.445       .  S
C760        O773   1.265   1_545  A
O761        C771   1.271       .  A
O762        C775   1.347       .  A
O762       Al772   2.208   1_565  S
Al763       O776   1.798       .  S
Al763       O768   1.606   1_565  S
O764        C771   1.296       .  A
O765        C774   1.293       .  A
O765       Al772   1.989       .  S
O767        C774   1.281       .  A
O768       Al772   1.716       .  S
O769        C770   1.255       .  A
C770        C821   1.428       .  S
C775        O776   1.298       .  A
C777        C778   1.509       .  D
C778        C779   1.618       .  S
C778        C788   1.589       .  S
C779        C780   1.471       .  A
C779        C784   1.455       .  A
C780        C781   1.470       .  A
C780        H785   1.082       .  S
C781        C782   1.377       .  A
C782        C783   1.386       .  A
C782        H786   1.086       .  S
C783        C784   1.450       .  A
C783        C812   1.517       .  S
C784        H787   1.082       .  S
C788        C789   1.432       .  A
C788        C793   1.457       .  A
C789        C790   1.440       .  A
C789        H794   1.083       .  S
C790        C791   1.372       .  A
C791        C792   1.386       .  A
C791        H795   1.086       .  S
C792        C793   1.462       .  A
C792        C802   1.524       .  S
C793        H796   1.082       .  S
O797        C812   1.274       .  A
C798        O808   1.257       .  A
C798        O799   1.279       .  A
O800        C802   1.291       .  A
Al801       O809   2.039       .  S
Al801       O811   1.949       .  S
Al801       O810   1.710       .  S
C802        O815   1.249       .  A
O803        C813   1.283       .  A
O803       Al805   1.975       .  S
O804        C817   1.247       .  A
O804       Al814   1.836       .  S
Al805       O815   1.895       .  S
O806        C813   1.234       .  A
O807        C816   1.251       .  A
O807       Al814   1.882       .  S
O809        C816   1.299       .  A
O810       Al814   1.799       .  S
O811        C812   1.280       .  A
C813        C930   1.424       .  S
C817        C921   1.402       .  S
C817        O818   1.235       .  A
C819        C820   1.411       .  A
C819        C824   1.410       .  A
C819        C938   1.502       .  S
C820        C821   1.391       .  A
C820        H825   1.083       .  S
C821        C822   1.385       .  A
C822        C823   1.369       .  A
C823        C824   1.403       .  A
C823        C902   1.447       .  S
C824        H827   1.077       .  S
C828        C829   1.438   1_545  A
C828        C833   1.396       .  A
C828        C989   1.524   1_545  S
C829        C830   1.396   1_565  A
C829        H834   1.075       .  S
C830        C831   1.369       .  A
C831        C832   1.347       .  A
C832        C833   1.376       .  A
C832        C912   1.416       .  S
C833        H836   1.075       .  S
C837        C878   1.569       .  S
C837        C838   1.425       .  A
C837        C842   1.439       .  A
C838        C839   1.438       .  A
C838        H843   1.083       .  S
C839        C840   1.398       .  A
C840        C841   1.389       .  A
C840        H844   1.084       .  S
C841        C842   1.452       .  A
C841        C871   1.514       .  S
C842        H845   1.083       .  S
C846        C878   1.595       .  S
C846        C847   1.459       .  A
C846        C851   1.445       .  A
C847        C848   1.457       .  A
C847        H852   1.082       .  S
C848        C849   1.391       .  A
C849        C850   1.402       .  A
C849        H853   1.086       .  S
C850        C851   1.445       .  A
C850        C875   1.521       .  S
C851        H854   1.083       .  S
O855        C870   1.237   1_545  A
O855       Al863   1.853       .  S
C856        O866   1.293       .  A
C856        O857   1.275       .  A
O858        C860   1.242       .  A
Al859       O867   1.862       .  S
Al859       O869   1.864       .  S
Al859       O868   1.775       .  S
C860        C932   1.464       .  S
C860        O873   1.272       .  A
O861        C871   1.221       .  A
O862        C875   1.300       .  A
O862       Al872   1.982   1_545  S
Al863       O876   1.962       .  S
Al863       O868   1.786   1_545  S
O864        C871   1.279       .  A
O865        C874   1.285       .  A
O865       Al872   2.023       .  S
O867        C874   1.230       .  A
O868       Al872   1.730       .  S
O869        C870   1.253       .  A
C870        C923   1.437       .  S
C875        O876   1.287       .  A
C877        C878   1.485       .  D
C877        C879   1.590       .  S
C877        C888   1.573       .  S
C879        C880   1.450       .  A
C879        C884   1.453       .  A
C880        C881   1.451       .  A
C880        H885   1.083       .  S
C881        C882   1.370       .  A
C882        C883   1.383       .  A
C882        H886   1.087       .  S
C883        C884   1.448       .  A
C883        C917   1.508       .  S
C884        H887   1.082       .  S
C888        C889   1.429       .  A
C888        C893   1.447       .  A
C889        C890   1.438       .  A
C889        H894   1.083       .  S
C890        C891   1.375       .  A
C891        C892   1.385       .  A
C891        H895   1.087       .  S
C892        C893   1.453       .  A
C892        C913   1.511       .  S
C893        H896   1.082       .  S
O897        C912   1.234       .  A
C898        O908   1.276       .  A
C898        O899   1.254       .  A
O900        C902   1.229       .  A
Al901       O909   1.898   1_554  S
Al901       O911   1.869   1_554  S
Al901       O910   1.783       .  S
C902        O915   1.282       .  A
O903        C913   1.247       .  A
O903       Al905   1.876       .  S
O904        C917   1.275       .  A
O904       Al914   1.934       .  S
Al905       O915   1.984       .  S
O906        C913   1.291       .  A
O907        C916   1.298       .  A
O907       Al914   2.027       .  S
O909        C916   1.257       .  A
O910       Al914   1.707   1_554  S
O911        C912   1.263       .  A
C917        O918   1.277       .  A
C919        C920   1.381       .  A
C919        C924   1.418       .  A
C919        C970   1.491       .  S
C920        C921   1.380       .  A
C920        H925   1.064       .  S
C921        C922   1.356       .  A
C922        C923   1.370       .  A
C923        C924   1.386       .  A
C924        H927   1.074   1_565  S
C928        C929   1.392       .  A
C928        C933   1.440       .  A
C928        C957   1.472       .  S
C929        C930   1.358       .  A
C929        H934   1.065       .  S
C930        C931   1.370       .  A
C931        C932   1.391       .  A
C932        C933   1.374       .  A
C933        H936   1.079       .  S
C937        C938   1.414       .  A
C937        C942   1.394       .  A
C937        H944   1.083       .  S
C938        C939   1.422       .  A
C939        C940   1.391       .  A
C939        C946   1.504       .  S
C940        C941   1.394       .  A
C940        H945   1.079       .  S
C941        C942   1.406       .  A
C942        C943   1.505   1_545  S
C943        H947   1.106       .  S
C943        H948   1.110       .  S
C943        H949   1.110       .  S
C946        H950   1.107       .  S
C946        H951   1.100       .  S
C946        H952   1.095       .  S
C953        C954   1.394       .  A
C953        C958   1.390       .  A
C953        H960   1.084       .  S
C954        C955   1.431       .  A
C955        C956   1.377       .  A
C955        C962   1.525   1_565  S
C956        C957   1.388       .  A
C956        H961   1.081       .  S
C957        C958   1.431       .  A
C958        C959   1.513       .  S
C959        H963   1.109       .  S
C959        H964   1.110       .  S
C959        H965   1.106       .  S
C962        H966   1.092       .  S
C962        H967   1.094       .  S
C962        H968   1.106       .  S
C969        C970   1.404   1_545  A
C969        C974   1.367       .  A
C969        H976   1.066       .  S
C970        C971   1.428       .  A
C971        C972   1.382       .  A
C971        C978   1.510       .  S
C972        C973   1.390   1_565  A
C972        H977   1.077       .  S
C973        C974   1.399       .  A
C974        C975   1.515       .  S
C975        H979   1.103       .  S
C975        H980   1.089       .  S
C975        H981   1.080       .  S
C978        H982   1.109       .  S
C978        H983   1.110       .  S
C978        H984   1.104       .  S
C985        C986   1.406   1_545  A
C985        C990   1.373       .  A
C985        H992   1.064       .  S
C986        C987   1.419       .  A
C987        C988   1.393       .  A
C987        C994   1.505       .  S
C988        C989   1.404       .  A
C988        H993   1.072       .  S
C989        C990   1.400   1_565  A
C990        C991   1.504       .  S
C991        H995   1.112       .  S
C991        H996   1.103       .  S
C991        H997   1.108       .  S
C994        H998   1.109       .  S
C994        H999   1.105       .  S
C994       H1000   1.101       .  S
C1001      C1002   1.410       .  A
C1001      C1006   1.395       .  A
C1001      H1008   1.080       .  S
C1002      C1003   1.441       .  A
C1003      C1004   1.397       .  A
C1003      C1010   1.495       .  S
C1004      C1005   1.380       .  A
C1004      H1009   1.083       .  S
C1005      C1006   1.413       .  A
C1006      C1007   1.519       .  S
C1007      H1011   1.089       .  S
C1007      H1012   1.110       .  S
C1007      H1013   1.095       .  S
C1010      H1014   1.095   1_655  S
C1010      H1015   1.105       .  S
C1010      H1016   1.107       .  S
C1017      C1018   1.413       .  A
C1017      C1022   1.411       .  A
C1017      H1024   1.070       .  S
C1018      C1019   1.396       .  A
C1019      C1020   1.413       .  A
C1019      C1026   1.514       .  S
C1020      C1021   1.444       .  A
C1020      H1025   1.077       .  S
C1021      C1022   1.403       .  A
C1022      C1023   1.505       .  S
C1023      H1027   1.110       .  S
C1023      H1028   1.102       .  S
C1023      H1029   1.110       .  S
C1026      H1030   1.105       .  S
C1026      H1031   1.072       .  S
C1026      H1032   1.100       .  S
C1033      C1034   1.405       .  A
C1033      C1038   1.371       .  A
C1033      H1040   1.060       .  S
C1034      C1035   1.418       .  A
C1035      C1036   1.402       .  A
C1035      C1042   1.501       .  S
C1036      C1037   1.401       .  A
C1036      H1041   1.071       .  S
C1037      C1038   1.388       .  A
C1038      C1039   1.520   1_455  S
C1039      H1043   1.103       .  S
C1039      H1044   1.110   1_655  S
C1039      H1045   1.110       .  S
C1042      H1046   1.096       .  S
C1042      H1047   1.103       .  S
C1042      H1048   1.109       .  S
C1049      C1050   1.383       .  A
C1049      C1054   1.398   1_455  A
C1049      H1056   1.084       .  S
C1050      C1051   1.412       .  A
C1051      C1052   1.367       .  A
C1051      C1058   1.503       .  S
C1052      C1053   1.391   1_455  A
C1052      H1057   1.087       .  S
C1053      C1054   1.470       .  A
C1054      C1055   1.517       .  S
C1055      H1059   1.108       .  S
C1055      H1060   1.110       .  S
C1055      H1061   1.075       .  S
C1058      H1062   1.081       .  S
C1058      H1063   1.103   1_556  S
C1058      H1064   1.106       .  S
