geometry optimzed in LAMMPS
_audit_creation_date              2020-12-01 
_audit_creation_method            'lammps2cif' 
_symmetry_space_group_name_H-M    'P1' 
_symmetry_Int_Tables_number       1 
_symmetry_cell_setting            triclinic 
loop_ 
_symmetry_equiv_pos_as_xyz 
  x,y,z 
_cell_length_a                    26.3184107 
_cell_length_b                    26.573117948666802 
_cell_length_c                    37.48465376644322 
_cell_angle_alpha                 89.88839627134298 
_cell_angle_beta                  90.24009452198862 
_cell_angle_gamma                 89.56901762820911 
loop_ 
_atom_site_label 
_atom_site_type_symbol 
_atom_site_fract_x 
_atom_site_fract_y 
_atom_site_fract_z 
_atom_site_charge 
Fe1        Fe  0.16172410  0.29549505  0.37528501     1.65800
Fe2        Fe  0.28112030  0.31081520  0.40248273     1.73200
Fe3        Fe  0.18862408  0.38850698  0.43262334     1.54400
O4          O  0.15638967  0.42261239  0.38816769    -0.82300
O5          O  0.29467080  0.32848471  0.45625108    -0.80600
O6          O  0.11535316  0.35819591  0.36539559    -0.84800
O7          O  0.12330079  0.27700651  0.42003868    -0.79700
O8          O  0.25299937  0.43117215  0.42056894    -0.81400
O9          O  0.26367281  0.23855221  0.41723623    -0.84200
C10         C  0.10491363  0.30643905  0.44326057     0.96600
C11         C  0.12712713  0.40447449  0.36462662     1.04000
O12         O  0.21063668  0.33144805  0.40409572    -1.13200
O13         O  0.27697780  0.29029797  0.34843978    -0.75600
O14         O  0.19961409  0.31312246  0.33016349    -0.79100
O15         O  0.12087856  0.35151218  0.44755291    -0.79800
C16         C  0.24423977  0.29797024  0.32376196     0.95500
O17         O  0.20118012  0.22698865  0.37837573    -0.77700
O18         O  0.30097530  0.38128025  0.38641104    -0.82900
C19         C  0.26799664  0.34371230  0.48255823     0.98100
C20         C  0.28876381  0.42437253  0.39819406     1.04000
O21         O  0.22274409  0.35969933  0.47817643    -0.78600
C22         C  0.23819785  0.21006411  0.39689912     1.02300
Fe23       Fe  0.36349955  0.24008493  0.12606644     1.65800
Fe24       Fe  0.24279371  0.22517367  0.10136641     1.73200
Fe25       Fe  0.33323258  0.14598364  0.07050134     1.54400
O26         O  0.40058308  0.18201704  0.05328587    -0.82300
O27         O  0.22271514  0.15570597  0.11912516    -0.80600
O28         O  0.40053115  0.25685884  0.08038853    -0.84800
O29         O  0.40942595  0.17741303  0.13635990    -0.79700
O30         O  0.29734836  0.17323018  0.02540404    -0.81400
O31         O  0.24914741  0.24683365  0.15496311    -0.84200
C32         C  0.39578068  0.13175519  0.13804462     0.96600
C33         C  0.41717406  0.22703151  0.05679585     1.04000
O34         O  0.31304098  0.20393780  0.09863491    -1.13200
O35         O  0.26058986  0.29667319  0.08501554    -0.75600
O36         O  0.32484831  0.30852755  0.12240458    -0.79100
O37         O  0.36666392  0.11354281  0.11458085    -0.79800
C38         C  0.28743579  0.32536105  0.10431937     0.95500
O39         O  0.32700543  0.22420183  0.17211018    -0.77700
O40         O  0.22670794  0.20567267  0.04832436    -0.82900
C41         C  0.23441594  0.11207683  0.10820851     0.98100
C42         C  0.25203565  0.18920715  0.02175626     1.04000
O43         O  0.26915317  0.10423944  0.08515263    -0.78600
C44         C  0.28241128  0.23866441  0.17920322     1.02300
Fe45       Fe  0.49066731  0.91123801  0.37191897     1.65800
Fe46       Fe  0.47354075  0.03115242  0.34898790     1.73200
Fe47       Fe  0.39254888  0.94307828  0.31884847     1.54400
O48         O  0.42796266  0.87567270  0.30090914    -0.82300
O49         O  0.40415068  0.05248807  0.36797654    -0.80600
O50         O  0.50547980  0.87623996  0.32527944    -0.84800
O51         O  0.42778085  0.86603055  0.38247592    -0.79700
O52         O  0.41906186  0.97849058  0.27352601    -0.81400
O53         O  0.49777641  0.02344015  0.40195753    -0.84200
C54         C  0.38128493  0.87881443  0.38537590     0.96600
C55         C  0.47391774  0.85939457  0.30283427     1.04000
O56         O  0.45206112  0.96204904  0.34622082    -1.13200
O57         O  0.54435946  0.01247158  0.33056846    -0.75600
O58         O  0.55961896  0.94904284  0.36746211    -0.79100
O59         O  0.36118820  0.90950308  0.36346694    -0.79800
C60         C  0.57495923  0.98611365  0.34901549     0.95500
O61         O  0.47727420  0.94606022  0.41895231    -0.77700
O62         O  0.45202412  0.04820039  0.29663873    -0.82900
C63         C  0.36010804  0.04310837  0.35604087     0.98100
C64         C  0.43544824  0.02320043  0.27012793     1.04000
O65         O  0.35151049  0.00787655  0.33371540    -0.78600
C66         C  0.49195182  0.99012176  0.42610706     1.02300
Fe67       Fe  0.54100439  0.11216509  0.62515332     1.65800
Fe68       Fe  0.55749558  0.99305067  0.65135079     1.73200
Fe69       Fe  0.63657477  0.08322451  0.68145998     1.54400
O70         O  0.66837540  0.11550914  0.63653674    -0.82300
O71         O  0.57559084  0.97900932  0.70485379    -0.80600
O72         O  0.60295642  0.15802100  0.61535817    -0.84800
O73         O  0.52324297  0.15002225  0.67026700    -0.79700
O74         O  0.67990821  0.01970714  0.66788859    -0.81400
O75         O  0.48445927  0.01128747  0.66610039    -0.84200
C76         C  0.55396423  0.16807049  0.69288460     0.96600
C77         C  0.64929353  0.14507032  0.61348286     1.04000
O78         O  0.57808101  0.06262888  0.65343694    -1.13200
O79         O  0.53711069  0.99773933  0.59747715    -0.75600
O80         O  0.55766407  0.07469267  0.57949773    -0.79100
O81         O  0.59915204  0.15055873  0.69725615    -0.79800
C82         C  0.54394171  0.03010945  0.57284870     0.95500
O83         O  0.47274098  0.07455057  0.62828115    -0.77700
O84         O  0.62846650  0.97183134  0.63513417    -0.82900
C85         C  0.59264486  0.00378627  0.73137600     0.98100
C86         C  0.67239591  0.98375707  0.64606241     1.04000
O87         O  0.61045679  0.04802731  0.72758936    -0.78600
C88         C  0.45573079  0.03806263  0.64636574     1.02300
Fe89       Fe  0.98776698  0.91173331  0.12874030     1.65800
Fe90       Fe  0.97458847  0.03163687  0.15228212     1.73200
Fe91       Fe  0.89146382  0.94541824  0.18228889     1.54400
O92         O  0.85908058  0.91204067  0.13777710    -0.82300
O93         O  0.95567534  0.04834384  0.20521543    -0.80600
O94         O  0.92429793  0.86699279  0.11924195    -0.84800
O95         O  0.00328384  0.87665608  0.17548032    -0.79700
O96         O  0.85141302  0.01007529  0.16647452    -0.81400
O97         O  0.04531424  0.01021611  0.16968548    -0.84200
C98         C  0.97172791  0.86035472  0.19809407     0.96600
C99         C  0.87798945  0.88027387  0.11634878     1.04000
O100        O  0.95103081  0.96322414  0.15486178    -1.13200
O101        O  0.99631903  0.02384853  0.09871635    -0.75600
O102        O  0.97303228  0.94713176  0.08187517    -0.79100
O103        O  0.92629731  0.87784436  0.20047609    -0.79800
C104        C  0.98855758  0.99090532  0.07455293     0.95500
O105        O  0.05758095  0.94825876  0.13153744    -0.77700
O106        O  0.90548974  0.05548529  0.13408754    -0.82900
C107        C  0.93772860  0.02425450  0.23172945     0.98100
C108        C  0.86091765  0.04516447  0.14424305     1.04000
O109        O  0.91824157  0.98080566  0.22797641    -0.78600
C110        C  0.07439557  0.98488333  0.14966852     1.02300
Fe111      Fe  0.03395478  0.11162058  0.87406461     1.65800
Fe112      Fe  0.05968850  0.99344575  0.84976398     1.73200
Fe113      Fe  0.13610393  0.08802442  0.82275854     1.54400
O114        O  0.09654203  0.15302853  0.80441263    -0.82300
O115        O  0.13010113  0.97637081  0.86922746    -0.80600
O116        O  0.01883820  0.14859737  0.82792438    -0.84800
O117        O  0.09293249  0.16012116  0.88779403    -0.79700
O118        O  0.11591885  0.05179106  0.77607043    -0.81400
O119        O  0.03492025  0.99666418  0.90286285    -0.84200
C120        C  0.14024257  0.15104770  0.89041389     0.96600
C121        C  0.05010524  0.16781758  0.80635144     1.04000
O122        O  0.07647674  0.06419173  0.84823355    -1.13200
O123        O  0.98707119  0.00675966  0.83161362    -0.75600
O124        O  0.96781485  0.07022321  0.86732054    -0.79100
O125        O  0.16238176  0.12280297  0.86810752    -0.79800
C126        C  0.95482170  0.03185466  0.84939579     0.95500
O127        O  0.04771472  0.07542773  0.92060053    -0.77700
O128        O  0.08265902  0.98097058  0.79702509    -0.82900
C129        C  0.17422923  0.99039268  0.86050042     0.98100
C130        C  0.10047536  0.00706094  0.77135696     1.04000
O131        O  0.18183728  0.02686637  0.83901108    -0.78600
C132        C  0.03747873  0.02997433  0.92726957     1.02300
Fe133      Fe  0.86460502  0.23860348  0.37689502     1.62600
Fe134      Fe  0.74430523  0.22210006  0.40073116     1.73200
Fe135      Fe  0.83536270  0.14271701  0.43118084     1.54400
O136        O  0.86974326  0.11134123  0.38710374    -0.82300
O137        O  0.72828946  0.20163208  0.45340907    -0.80600
O138        O  0.91185060  0.17655897  0.36668741    -0.84800
O139        O  0.90080368  0.25477084  0.42305825    -0.79700
O140        O  0.77151141  0.10104934  0.41571076    -0.81400
O141        O  0.76187703  0.29303396  0.41790787    -0.84200
C142        C  0.91889916  0.22401545  0.44571729     0.96600
C143        C  0.90009251  0.13030030  0.36480612     1.04000
O144        O  0.81460683  0.20114811  0.40354075    -1.13200
O145        O  0.75076027  0.24495784  0.34759246    -0.75600
O146        O  0.82860867  0.22300865  0.33061266    -0.79100
O147        O  0.90254959  0.17885429  0.44883798    -0.79800
C148        C  0.78406613  0.23793371  0.32345459     0.95500
O149        O  0.82463961  0.30689515  0.38027157    -0.77700
O150        O  0.72438064  0.15308946  0.38219193    -0.82900
C151        C  0.75388887  0.18512568  0.47996151     0.98100
C152        C  0.73626136  0.10929075  0.39286778     1.04000
O153        O  0.79914134  0.16870289  0.47643858    -0.78600
C154        C  0.78691350  0.32267809  0.39834148     1.02300
Fe155      Fe  0.65719278  0.29265585  0.12576523     1.65800
Fe156      Fe  0.77736928  0.30885141  0.10169636     1.73200
Fe157      Fe  0.68677178  0.38730070  0.06989624     1.54400
O158        O  0.62016222  0.34947851  0.05221001    -0.82300
O159        O  0.79802552  0.37839194  0.11886597    -0.80600
O160        O  0.62056818  0.27480883  0.07999142    -0.84800
O161        O  0.60995176  0.35432332  0.13433589    -0.79700
O162        O  0.72433472  0.36125635  0.02456332    -0.81400
O163        O  0.77116203  0.28795436  0.15502605    -0.84200
C164        C  0.62282491  0.39998512  0.13716109     0.96600
C165        C  0.60386589  0.30427626  0.05597726     1.04000
O166        O  0.70723735  0.32956985  0.09842014    -1.13200
O167        O  0.75922355  0.23778495  0.08527983    -0.75600
O168        O  0.69681447  0.22464850  0.12336865    -0.79100
O169        O  0.65225897  0.41936700  0.11430406    -0.79800
C170        C  0.73406288  0.20856970  0.10511841     0.95500
O171        O  0.69331570  0.30980241  0.17206096    -0.77700
O172        O  0.79345101  0.32755251  0.04922539    -0.82900
C173        C  0.78674083  0.42177189  0.10705294     0.98100
C174        C  0.76968785  0.34430002  0.02208925     1.04000
O175        O  0.75053387  0.42961100  0.08486810    -0.78600
C176        C  0.73830248  0.29606478  0.17924058     1.02300
Fe177      Fe  0.87041557  0.73528269  0.62532830     1.65800
Fe178      Fe  0.74987300  0.71978740  0.60069796     1.73200
Fe179      Fe  0.83989777  0.64062185  0.56892356     1.54400
O180        O  0.90665242  0.67704548  0.55153099    -0.82300
O181        O  0.72983273  0.64990848  0.61746065    -0.80600
O182        O  0.90778795  0.75137445  0.57952415    -0.84800
O183        O  0.91604604  0.67276907  0.63554568    -0.79700
O184        O  0.80230959  0.66649391  0.52324660    -0.81400
O185        O  0.75565620  0.74043001  0.65448362    -0.84200
C186        C  0.90278323  0.62707503  0.63713538     0.96600
C187        C  0.92376180  0.72173243  0.55554088     1.04000
O188        O  0.81998838  0.69873236  0.59762396    -1.13200
O189        O  0.76727723  0.79163604  0.58488673    -0.75600
O190        O  0.83233107  0.80394377  0.62149432    -0.79100
O191        O  0.87413440  0.60850002  0.61336555    -0.79800
C192        C  0.79469927  0.82056286  0.60358471     0.95500
O193        O  0.83401875  0.72064470  0.67211906    -0.77700
O194        O  0.73376379  0.70121091  0.54776452    -0.82900
C195        C  0.74074921  0.60653384  0.60565416     0.98100
C196        C  0.75695689  0.68351477  0.52072580     1.04000
O197        O  0.77638045  0.59854330  0.58339889    -0.78600
C198        C  0.78882020  0.73392949  0.67900033     1.02300
Fe199      Fe  0.65955075  0.78451501  0.87833206     1.65800
Fe200      Fe  0.77992823  0.79695555  0.90487251     1.73200
Fe201      Fe  0.69116725  0.88050959  0.93299126     1.54400
O202        O  0.65707081  0.91234010  0.88842975    -0.82300
O203        O  0.79534876  0.81731498  0.95761991    -0.80600
O204        O  0.61637955  0.84812950  0.86489450    -0.84800
O205        O  0.61991580  0.77190020  0.92369071    -0.79700
O206        O  0.75579439  0.92005614  0.91664569    -0.81400
O207        O  0.75865805  0.72744048  0.92268356    -0.84200
C208        C  0.60555163  0.80181186  0.94798887     0.96600
C209        C  0.62840765  0.89437017  0.86450024     1.04000
O210        O  0.71026470  0.82082183  0.90584573    -1.13200
O211        O  0.77530999  0.77326411  0.85149012    -0.75600
O212        O  0.69833938  0.79535493  0.83223062    -0.79100
O213        O  0.62378141  0.84614712  0.95162058    -0.79800
C214        C  0.74315416  0.77999357  0.82632588     0.95500
O215        O  0.69543494  0.71482019  0.88476928    -0.77700
O216        O  0.80346300  0.86497051  0.88644918    -0.82900
C217        C  0.77112668  0.83661341  0.98362093     0.98100
C218        C  0.79211272  0.90968558  0.89531715     1.04000
O219        O  0.72700850  0.85565553  0.97934612    -0.78600
C220        C  0.73210024  0.69823418  0.90371493     1.02300
Fe221      Fe  0.53547180  0.62130116  0.37424969     1.65800
Fe222      Fe  0.55122415  0.50186157  0.34893174     1.73200
Fe223      Fe  0.63201207  0.59048389  0.31940247     1.54400
O224        O  0.59507601  0.65726799  0.30172262    -0.82300
O225        O  0.62145927  0.47964746  0.36641676    -0.80600
O226        O  0.51912870  0.65862945  0.32830961    -0.84800
O227        O  0.59849206  0.66596191  0.38504628    -0.79700
O228        O  0.60654457  0.55549948  0.27333630    -0.81400
O229        O  0.52980520  0.50753825  0.40238963    -0.84200
C230        C  0.64466055  0.65205234  0.38748428     0.96600
C231        C  0.54939568  0.67401310  0.30452524     1.04000
O232        O  0.57274018  0.57105141  0.34687155    -1.13200
O233        O  0.47876572  0.52094675  0.33288016    -0.75600
O234        O  0.46642130  0.58401940  0.37045897    -0.79100
O235        O  0.66364927  0.62276491  0.36443617    -0.79800
C236        C  0.44974277  0.54699499  0.35264338     0.95500
O237        O  0.55031004  0.58440493  0.42065122    -0.77700
O238        O  0.57058411  0.48698195  0.29578853    -0.82900
C239        C  0.66568110  0.49027653  0.35563831     0.98100
C240        C  0.58894470  0.51134998  0.26948976     1.04000
O241        O  0.67425855  0.52635453  0.33402853    -0.78600
C242        C  0.53602132  0.53992469  0.42703017     1.02300
Fe243      Fe  0.48872139  0.41408693  0.62507968     1.65800
Fe244      Fe  0.47097386  0.53263784  0.65117934     1.73200
Fe245      Fe  0.39260984  0.44169603  0.68111716     1.54400
O246        O  0.36081428  0.40749012  0.63681335    -0.82300
O247        O  0.45335930  0.54642956  0.70428340    -0.80600
O248        O  0.42723170  0.36738108  0.61487234    -0.84800
O249        O  0.50677540  0.37660539  0.67063584    -0.79700
O250        O  0.34829105  0.50459624  0.66668597    -0.81400
O251        O  0.54393291  0.51516857  0.66634298    -0.84200
C252        C  0.47650072  0.35842560  0.69340234     0.96600
C253        C  0.38019889  0.37800088  0.61395276     1.04000
O254        O  0.45071851  0.46295564  0.65301178    -1.13200
O255        O  0.49102608  0.52848780  0.59758168    -0.75600
O256        O  0.47202017  0.45139947  0.57897668    -0.79100
O257        O  0.43117966  0.37541310  0.69762374    -0.79800
C258        C  0.48503772  0.49638119  0.57279373     0.95500
O259        O  0.55680432  0.45271561  0.62841651    -0.77700
O260        O  0.40015759  0.55322468  0.63489338    -0.82900
C261        C  0.43691784  0.52148466  0.73077202     0.98100
C262        C  0.35617162  0.54069673  0.64494627     1.04000
O263        O  0.41860040  0.47750129  0.72702784    -0.78600
C264        C  0.57317197  0.48941056  0.64663187     1.02300
Fe265      Fe  0.16291818  0.79383040  0.62522802     1.65800
Fe266      Fe  0.28224214  0.80856391  0.59857878     1.73200
Fe267      Fe  0.19016135  0.88683387  0.56726413     1.54400
O268        O  0.12416283  0.84755103  0.55043614    -0.82300
O269        O  0.30244039  0.87908196  0.61407401    -0.80600
O270        O  0.12436665  0.77478313  0.58074405    -0.84800
O271        O  0.11583737  0.85507289  0.63390634    -0.79700
O272        O  0.22745100  0.86149754  0.52131310    -0.81400
O273        O  0.27831040  0.78924825  0.65247436    -0.84200
C274        C  0.12937515  0.90044035  0.63629371     0.96600
C275        C  0.10820447  0.80251321  0.55556750     1.04000
O276        O  0.21188655  0.82937337  0.59600433    -1.13200
O277        O  0.26464030  0.73591481  0.58453111    -0.75600
O278        O  0.20167856  0.72600430  0.62277784    -0.79100
O279        O  0.15694238  0.91949605  0.61219573    -0.79800
C280        C  0.23807477  0.70811584  0.60465839     0.95500
O281        O  0.20119349  0.81217975  0.67042930    -0.77700
O282        O  0.29612883  0.82555114  0.54531199    -0.82900
C283        C  0.28949640  0.92248875  0.60311734     0.98100
C284        C  0.27248709  0.84368264  0.51846715     1.04000
O285        O  0.25289079  0.93016261  0.58137637    -0.78600
C286        C  0.24597636  0.79721047  0.67704485     1.02300
Fe287      Fe  0.36838292  0.74055837  0.87587574     1.65800
Fe288      Fe  0.24750887  0.72422752  0.90035362     1.73200
Fe289      Fe  0.33815610  0.64352953  0.93026119     1.54400
O290        O  0.37480484  0.61328949  0.88661224    -0.82300
O291        O  0.23100422  0.70267153  0.95276248    -0.80600
O292        O  0.41271545  0.67832561  0.86189770    -0.84800
O293        O  0.40829175  0.75314388  0.92100896    -0.79700
O294        O  0.27520284  0.60181018  0.91238192    -0.81400
O295        O  0.26534312  0.79459258  0.91873996    -0.84200
C296        C  0.42173389  0.72453700  0.94637288     0.96600
C297        C  0.40247565  0.63169360  0.86240997     1.04000
O298        O  0.31810040  0.70282572  0.90276953    -1.13200
O299        O  0.25272999  0.74934967  0.84753261    -0.75600
O300        O  0.33058223  0.72941394  0.82959771    -0.79100
O301        O  0.40363671  0.68020393  0.95056299    -0.79800
C302        C  0.28575586  0.74390565  0.82308612     0.95500
O303        O  0.33088893  0.80932682  0.88328305    -0.77700
O304        O  0.22709270  0.65548016  0.88088348    -0.82900
C305        C  0.25543117  0.68452255  0.97931839     0.98100
C306        C  0.23905764  0.61105226  0.89034370     1.04000
O307        O  0.30007684  0.66670587  0.97578382    -0.78600
C308        C  0.29335654  0.82483090  0.90168024     1.02300
Fe309      Fe  0.98925361  0.41346405  0.87635769     1.65800
Fe310      Fe  0.96870503  0.53145807  0.85023051     1.73200
Fe311      Fe  0.89107241  0.43953742  0.82146603     1.54400
O312        O  0.92898064  0.37288409  0.80495514    -0.82300
O313        O  0.89888309  0.54974056  0.86914584    -0.80600
O314        O  0.00504973  0.37456983  0.83143146    -0.84800
O315        O  0.92723459  0.36787089  0.88872787    -0.79700
O316        O  0.91636567  0.47387883  0.77554021    -0.81400
O317        O  0.99396018  0.52753768  0.90346949    -0.84200
C318        C  0.88011975  0.37898415  0.88977379     0.96600
C319        C  0.97483963  0.35683597  0.80845176     1.04000
O320        O  0.94978916  0.46146901  0.84871436    -1.13200
O321        O  0.04004946  0.51488940  0.83224108    -0.75600
O322        O  0.05759882  0.45317972  0.87022555    -0.79100
O323        O  0.86022166  0.40703302  0.86620629    -0.79800
C324        C  0.07174167  0.49000750  0.85084582     0.95500
O325        O  0.97420637  0.45082677  0.92202575    -0.77700
O326        O  0.94605593  0.54557262  0.79744316    -0.82900
C327        C  0.85492336  0.53757049  0.85851098     0.98100
C328        C  0.93042859  0.51908955  0.77129893     1.04000
O329        O  0.84746446  0.50287300  0.83560204    -0.78600
C330        C  0.98847578  0.49514860  0.92830442     1.02300
Fe331      Fe  0.03606234  0.61993448  0.12639401     1.65800
Fe332      Fe  0.05393597  0.50172313  0.15377121     1.73200
Fe333      Fe  0.13437094  0.59277770  0.18090987     1.54400
O334        O  0.16468356  0.62415657  0.13505120    -0.82300
O335        O  0.07234519  0.49008487  0.20760435    -0.80600
O336        O  0.09786864  0.66614948  0.11557157    -0.84800
O337        O  0.01941736  0.65732081  0.17212731    -0.79700
O338        O  0.17752827  0.52901796  0.16758682    -0.81400
O339        O  0.98127480  0.52013375  0.16885903    -0.84200
C340        C  0.05053408  0.67514106  0.19464499     0.96600
C341        C  0.14406394  0.65302833  0.11218244     1.04000
O342        O  0.07478097  0.57117249  0.15428021    -1.13200
O343        O  0.03359816  0.50509387  0.09964634    -0.75600
O344        O  0.05191768  0.58240684  0.08065730    -0.79100
O345        O  0.09668909  0.65956994  0.19710981    -0.79800
C346        C  0.03971629  0.53719333  0.07463438     0.95500
O347        O  0.96761238  0.58130408  0.12991463    -0.77700
O348        O  0.12431193  0.47940411  0.13762192    -0.82900
C349        C  0.09103291  0.51598384  0.23308883     0.98100
C350        C  0.16867811  0.49170831  0.14721312     1.04000
O351        O  0.10997451  0.55926713  0.22773345    -0.78600
C352        C  0.95165440  0.54471682  0.14848244     1.02300
C353        C  0.97951637  0.47884490  0.99300363    -0.26900
C354        C  0.00141944  0.50742182  0.96554216    -0.15000
C355        C  0.03893239  0.54299458  0.97406678     0.35600
C356        C  0.05199910  0.55103939  0.00981873    -0.26400
C357        C  0.02930446  0.52316295  0.03732191    -0.15600
C358        C  0.99348991  0.48595142  0.02863661     0.36700
N359        N  0.97037024  0.45594394  0.05581598    -0.89900
H360        H  0.95134920  0.45055351  0.98684048     0.17800
H361        H  0.08028457  0.57917516  0.01605360     0.17800
N362        N  0.06513250  0.56974078  0.94657547    -0.88900
H363        H  0.97833648  0.41814077  0.05036067     0.35200
H364        H  0.93101966  0.46111616  0.05419371     0.40300
H365        H  0.10393929  0.56145543  0.94891036     0.39900
H366        H  0.06012755  0.60827117  0.95098250     0.34800
C367        C  0.18269174  0.57814219  0.84258971    -0.26900
C368        C  0.20732861  0.56985756  0.87548518    -0.15000
C369        C  0.19537779  0.52622341  0.89518548     0.35600
C370        C  0.15369821  0.49666601  0.88447279    -0.26400
C371        C  0.12453811  0.50936563  0.85411121    -0.15600
C372        C  0.14191496  0.54822850  0.83164167     0.36700
N373        N  0.11673674  0.55918265  0.79850934    -0.89900
H374        H  0.19315191  0.60999312  0.82613187     0.17800
H375        H  0.14167034  0.46606035  0.90151074     0.17800
N376        N  0.22292541  0.51411026  0.92726997    -0.88900
H377        H  0.14347834  0.55633146  0.77805845     0.35200
H378        H  0.10360274  0.59641304  0.79929499     0.40300
H379        H  0.26000427  0.50455591  0.91982653     0.39900
H380        H  0.20783871  0.48209693  0.93939845     0.34800
C381        C  0.22640119  0.65842787  0.07831748    -0.26900
C382        C  0.17396600  0.66922413  0.08004741    -0.15000
C383        C  0.15013032  0.68951260  0.04926108     0.35600
C384        C  0.17787122  0.69586415  0.01753688    -0.26400
C385        C  0.22967664  0.68262341  0.01516022    -0.15600
C386        C  0.25452964  0.66532048  0.04661346     0.36700
N387        N  0.30800863  0.65388847  0.04634870    -0.89900
H388        H  0.24554956  0.64336050  0.10168301     0.17800
H389        H  0.15785608  0.70985105  0.99418770     0.17800
N390        N  0.09710523  0.70203730  0.04939473    -0.88900
H391        H  0.31999935  0.64030019  0.07120952     0.35200
H392        H  0.32722813  0.68769697  0.04222746     0.40300
H393        H  0.07910024  0.68076279  0.02968378     0.39900
H394        H  0.09319967  0.74006819  0.04259336     0.34800
C395        C  0.30036923  0.73249462  0.75858749    -0.26900
C396        C  0.27336947  0.75676190  0.78591499    -0.15000
C397        C  0.23916955  0.79597393  0.77731699     0.35600
C398        C  0.23215414  0.80979063  0.74162653    -0.26400
C399        C  0.25897936  0.78535838  0.71428287    -0.15600
C400        C  0.29352024  0.74636240  0.72293858     0.36700
N401        N  0.32065131  0.71970818  0.69570999    -0.89900
H402        H  0.32696953  0.70237704  0.76489199     0.17800
H403        H  0.20547605  0.83982495  0.73529593     0.17800
N404        N  0.21260623  0.82284413  0.80468521    -0.88900
H405        H  0.31186173  0.68152402  0.69785710     0.35200
H406        H  0.35954112  0.72355685  0.70069067     0.40300
H407        H  0.17363401  0.81970419  0.79974485     0.39900
H408        H  0.22215873  0.86087408  0.80272356     0.34800
C409        C  0.27653197  0.58987687  0.65418168    -0.26900
C410        C  0.31381604  0.57161066  0.63099731    -0.15000
C411        C  0.31605266  0.59049342  0.59586492     0.35600
C412        C  0.28657257  0.63232858  0.58618648    -0.26400
C413        C  0.25416049  0.65528774  0.61092482    -0.15600
C414        C  0.24603701  0.63142267  0.64439253     0.36700
N415        N  0.21031819  0.65187109  0.66953787    -0.89900
H416        H  0.27412833  0.57460153  0.68094319     0.17800
H417        H  0.29178491  0.64895603  0.56004107     0.17800
N418        N  0.35031674  0.56868831  0.57049626    -0.88900
H419        H  0.21129127  0.63156453  0.69345894     0.35200
H420        H  0.17396539  0.64698477  0.65880458     0.40300
H421        H  0.37532202  0.59663280  0.56200465     0.39900
H422        H  0.32909819  0.55701244  0.54841855     0.34800
C423        C  0.40826562  0.52441279  0.79456252    -0.26900
C424        C  0.43673244  0.54592998  0.76689284    -0.15000
C425        C  0.46104338  0.59256034  0.77350491     0.35600
C426        C  0.45176856  0.61853180  0.80570652    -0.26400
C427        C  0.42003987  0.59865173  0.83229503    -0.15600
C428        C  0.40001057  0.54985915  0.82694217     0.36700
N429        N  0.36935429  0.52645688  0.85365352    -0.89900
H430        H  0.39025747  0.48830393  0.79063609     0.17800
H431        H  0.46834946  0.65532515  0.80952758     0.17800
N432        N  0.49436614  0.61404411  0.74735160    -0.88900
H433        H  0.38633063  0.49206273  0.86053853     0.35200
H434        H  0.33365395  0.51911564  0.84256811     0.40300
H435        H  0.52578407  0.58995576  0.74499459     0.39900
H436        H  0.50839888  0.64863256  0.75605267     0.34800
C437        C  0.47107733  0.48537516  0.50812552    -0.26900
C438        C  0.49639455  0.51054564  0.53573682    -0.15000
C439        C  0.53558846  0.54469001  0.52750627     0.35600
C440        C  0.54874924  0.55236996  0.49176998    -0.26400
C441        C  0.52373364  0.52680271  0.46415498    -0.15600
C442        C  0.48431252  0.49296017  0.47240632     0.36700
N443        N  0.45677373  0.46753569  0.44464673    -0.89900
H444        H  0.44104369  0.45918952  0.51449740     0.17800
H445        H  0.57878073  0.57858327  0.48542487     0.17800
N446        N  0.56322966  0.56997236  0.55530603    -0.88900
H447        H  0.42611487  0.44773986  0.45521931     0.35200
H448        H  0.48111628  0.44043497  0.43374040     0.40300
H449        H  0.53885481  0.59686548  0.56641952     0.39900
H450        H  0.59376369  0.58997057  0.54472969     0.34800
C451        C  0.50640540  0.71162828  0.97362867    -0.26900
C452        C  0.46437238  0.74342832  0.96840427    -0.15000
C453        C  0.47099021  0.79611350  0.97308058     0.35600
C454        C  0.52007572  0.81606442  0.97344378    -0.26400
C455        C  0.56215228  0.78415602  0.96953664    -0.15600
C456        C  0.55565927  0.73178593  0.97460944     0.36700
N457        N  0.59936283  0.69908227  0.97626364    -0.89900
H458        H  0.50169872  0.67123076  0.97188586     0.17800
H459        H  0.52466534  0.85648743  0.97166026     0.17800
N460        N  0.42874576  0.83041855  0.97504895    -0.88900
H461        H  0.58819672  0.66161305  0.97912896     0.35200
H462        H  0.61962348  0.70825845  0.99936911     0.40300
H463        H  0.40424337  0.81786335  0.99499786     0.39900
H464        H  0.40905937  0.83142320  0.95085912     0.34800
C465        C  0.73903637  0.62184408  0.86591135    -0.26900
C466        C  0.74996110  0.64573625  0.89858323    -0.15000
C467        C  0.78768340  0.62479991  0.92099836     0.35600
C468        C  0.81795092  0.58525327  0.90850284    -0.26400
C469        C  0.81216162  0.56670425  0.87364904    -0.15600
C470        C  0.77035316  0.58286627  0.85290289     0.36700
N471        N  0.76284731  0.56347370  0.81752078    -0.89900
H472        H  0.70965773  0.63716432  0.84862525     0.17800
H473        H  0.84887544  0.57167173  0.92523041     0.17800
N474        N  0.79777176  0.64573544  0.95549584    -0.88900
H475        H  0.73224378  0.58170170  0.80499590     0.35200
H476        H  0.75264413  0.52570192  0.82001567     0.40300
H477        H  0.83546554  0.65795149  0.95599250     0.39900
H478        H  0.79414727  0.61709615  0.97444880     0.34800
C479        C  0.01051511  0.70813659  0.53267499    -0.26900
C480        C  0.96792696  0.73969563  0.53506742    -0.15000
C481        C  0.97375339  0.79191199  0.52906238     0.35600
C482        C  0.02276258  0.81259800  0.52905510    -0.26400
C483        C  0.06527539  0.78162652  0.53483800    -0.15600
C484        C  0.05939802  0.72857371  0.53233211     0.36700
N485        N  0.10211390  0.69452147  0.53286681    -0.89900
H486        H  0.00637532  0.66781036  0.53577968     0.17800
H487        H  0.02700451  0.85311752  0.52960170     0.17800
N488        N  0.92970219  0.82412923  0.52717995    -0.88900
H489        H  0.10262652  0.67618143  0.55758570     0.35200
H490        H  0.13630473  0.71384889  0.53017162     0.40300
H491        H  0.90921065  0.81399858  0.50436436     0.39900
H492        H  0.94039191  0.86160469  0.52366509     0.34800
C493        C  0.88959569  0.55155921  0.67563972    -0.26900
C494        C  0.91730069  0.59562254  0.66888709    -0.15000
C495        C  0.95226601  0.61208621  0.69517106     0.35600
C496        C  0.95694383  0.58545666  0.72767578    -0.26400
C497        C  0.92757888  0.54259135  0.73495466    -0.15600
C498        C  0.89379987  0.52543973  0.70803205     0.36700
N499        N  0.86092804  0.48333770  0.71322550    -0.89900
H500        H  0.86198687  0.53848411  0.65630139     0.17800
H501        H  0.98321031  0.59893108  0.74777014     0.17800
N502        N  0.98206451  0.65643545  0.68931507    -0.88900
H503        H  0.83852185  0.48984748  0.73574832     0.35200
H504        H  0.88300607  0.45090886  0.71696069     0.40300
H505        H  0.00670390  0.64885495  0.66814958     0.39900
H506        H  0.00490325  0.66406814  0.71151168     0.34800
C507        C  0.80397383  0.72133141  0.74405502    -0.26900
C508        C  0.77554727  0.74439920  0.71661406    -0.15000
C509        C  0.73759714  0.77982875  0.72556989     0.35600
C510        C  0.72862264  0.79125684  0.76140623    -0.26400
C511        C  0.75685155  0.76823856  0.78893981    -0.15600
C512        C  0.79493738  0.73259306  0.78012240     0.36700
N513        N  0.82379942  0.70741261  0.80759003    -0.89900
H514        H  0.83323307  0.69407678  0.73734408     0.17800
H515        H  0.69942260  0.81881941  0.76764051     0.17800
N516        N  0.70901691  0.80558541  0.69841703    -0.88900
H517        H  0.85079919  0.68306991  0.79645305     0.35200
H518        H  0.79874301  0.68481029  0.82187702     0.40300
H519        H  0.71484845  0.84421238  0.70137997     0.39900
H520        H  0.67045440  0.79856225  0.70264574     0.34800
C521        C  0.69171782  0.56698405  0.65369367    -0.26900
C522        C  0.70863874  0.56508478  0.61823969    -0.15000
C523        C  0.68754804  0.52971210  0.59457781     0.35600
C524        C  0.64661045  0.50026016  0.60616550    -0.26400
C525        C  0.62548355  0.50706460  0.64033943    -0.15600
C526        C  0.64999229  0.53887685  0.66478093     0.36700
N527        N  0.63109522  0.54471954  0.70032662    -0.89900
H528        H  0.70861344  0.59334698  0.67224452     0.17800
H529        H  0.62799949  0.47577372  0.58716424     0.17800
N530        N  0.70479760  0.52662995  0.55827587    -0.88900
H531        H  0.62181216  0.58267800  0.70410611     0.35200
H532        H  0.66036889  0.53533923  0.71811688     0.40300
H533        H  0.69543153  0.56059772  0.54564414     0.39900
H534        H  0.68530184  0.49849580  0.54450907     0.34800
C535        C  0.75466072  0.66488364  0.45459056    -0.26900
C536        C  0.72910595  0.68108362  0.48550577    -0.15000
C537        C  0.67631656  0.69169044  0.48260159     0.35600
C538        C  0.65072786  0.68523336  0.44988856    -0.26400
C539        C  0.67582183  0.66734461  0.41934543    -0.15600
C540        C  0.72888587  0.65802330  0.42174860     0.36700
N541        N  0.75649108  0.64070798  0.39106700    -0.89900
H542        H  0.79496737  0.65660879  0.45609832     0.17800
H543        H  0.61008798  0.69202667  0.44904462     0.17800
N544        N  0.64758784  0.70722725  0.51309093    -0.88900
H545        H  0.79476641  0.63461562  0.39738313     0.35200
H546        H  0.75540594  0.66957449  0.37206614     0.40300
H547        H  0.61884638  0.68094131  0.51733105     0.39900
H548        H  0.63044537  0.74191549  0.50726075     0.34800
C549        C  0.62128950  0.48093427  0.17181099    -0.26900
C550        C  0.60588993  0.43046230  0.16884397    -0.15000
C551        C  0.58091088  0.40838967  0.19844778     0.35600
C552        C  0.57417132  0.43627046  0.23012496    -0.26400
C553        C  0.59168819  0.48597060  0.23363178    -0.15600
C554        C  0.61475981  0.50853137  0.20357613     0.36700
N555        N  0.63328368  0.55901412  0.20527142    -0.89900
H556        H  0.64058334  0.49883253  0.14974358     0.17800
H557        H  0.55623910  0.41820105  0.25267137     0.17800
N558        N  0.56423082  0.35702026  0.19706758    -0.88900
H559        H  0.61528789  0.58001657  0.18519675     0.35200
H560        H  0.67223095  0.55819600  0.19988910     0.40300
H561        H  0.53429145  0.35537612  0.17869042     0.39900
H562        H  0.54937819  0.34572123  0.22160819     0.34800
C563        C  0.83589717  0.46273630  0.15509782    -0.26900
C564        C  0.81896516  0.46353638  0.11948823    -0.15000
C565        C  0.83911868  0.49921871  0.09566790     0.35600
C566        C  0.87900814  0.53028886  0.10725595    -0.26400
C567        C  0.89981200  0.52531987  0.14181061    -0.15600
C568        C  0.87598309  0.49325061  0.16641549     0.36700
N569        N  0.89368036  0.49009286  0.20254919    -0.89900
H570        H  0.81975607  0.43618411  0.17381889     0.17800
H571        H  0.89702041  0.55491355  0.08810308     0.17800
N572        N  0.82184998  0.50122615  0.05923333    -0.88900
H573        H  0.90455003  0.45283783  0.20767684     0.35200
H574        H  0.86328121  0.49901098  0.21931945     0.40300
H575        H  0.83206276  0.46727255  0.04704566     0.39900
H576        H  0.84058481  0.52963293  0.04526897     0.34800
C577        C  0.77120599  0.36597975  0.95680397    -0.26900
C578        C  0.79673544  0.34599205  0.98677931    -0.15000
C579        C  0.84850551  0.33105431  0.98248820     0.35600
C580        C  0.87319211  0.33884303  0.94991683    -0.26400
C581        C  0.84861372  0.36173407  0.92073099    -0.15600
C582        C  0.79618094  0.37379527  0.92399383     0.36700
N583        N  0.76850309  0.39516553  0.89440887    -0.89900
H584        H  0.73162047  0.37687403  0.95910579     0.17800
H585        H  0.91311972  0.32893240  0.94817782     0.17800
N586        N  0.87815192  0.30912376  0.01072478    -0.88900
H587        H  0.73092449  0.40309819  0.90149730     0.35200
H588        H  0.76693008  0.36778370  0.87443555     0.40300
H589        H  0.86044546  0.27629940  0.01952087     0.39900
H590        H  0.88135204  0.33494550  0.03158700     0.34800
C591        C  0.77321082  0.39508516  0.35729853    -0.26900
C592        C  0.76677092  0.37427395  0.39163239    -0.15000
C593        C  0.73397023  0.39918315  0.41581241     0.35600
C594        C  0.70546510  0.44072314  0.40425456    -0.26400
C595        C  0.70751502  0.45758845  0.36875709    -0.15600
C596        C  0.74356450  0.43625133  0.34548147     0.36700
N597        N  0.74669661  0.45327360  0.30913528    -0.89900
H598        H  0.79825201  0.37658609  0.33847758     0.17800
H599        H  0.67858939  0.45775039  0.42255621     0.17800
N600        N  0.72725423  0.38240484  0.45183475    -0.88900
H601        H  0.77296390  0.43156940  0.29491492     0.35200
H602        H  0.76089097  0.48990977  0.30955955     0.40300
H603        H  0.76298100  0.37825492  0.46383170     0.39900
H604        H  0.70864221  0.34786210  0.45184383     0.34800
C605        C  0.73268769  0.28611564  0.27975539    -0.26900
C606        C  0.77206181  0.25142235  0.28634833    -0.15000
C607        C  0.80201903  0.23389180  0.25772433     0.35600
C608        C  0.79179372  0.25103254  0.22323988    -0.26400
C609        C  0.75167369  0.28482016  0.21651631    -0.15600
C610        C  0.72233986  0.30309100  0.24519837     0.36700
N611        N  0.68238803  0.33921400  0.23952576    -0.89900
H612        H  0.71030949  0.30103086  0.30158106     0.17800
H613        H  0.81436448  0.23621801  0.20147917     0.17800
N614        N  0.84219267  0.19793583  0.26330362    -0.88900
H615        H  0.69039001  0.37116200  0.25474051     0.35200
H616        H  0.64854249  0.32382615  0.24895279     0.40300
H617        H  0.87608106  0.21371452  0.25426166     0.39900
H618        H  0.83461971  0.16618799  0.24778253     0.34800
C619        C  0.06487600  0.25366354  0.78290723    -0.26900
C620        C  0.03175587  0.21313446  0.78694347    -0.15000
C621        C  0.97883655  0.22189156  0.78314699     0.35600
C622        C  0.95996894  0.27148578  0.78450090    -0.26400
C623        C  0.99332531  0.31184074  0.78896598    -0.15600
C624        C  0.04620564  0.30307612  0.78394348     0.36700
N625        N  0.08213937  0.34329013  0.78192499    -0.89900
H626        H  0.10560818  0.24746081  0.78380893     0.17800
H627        H  0.91936569  0.27784247  0.78652684     0.17800
N628        N  0.94441145  0.18017265  0.78178991    -0.88900
H629        H  0.08582945  0.36077306  0.80667654     0.35200
H630        H  0.06909525  0.36955170  0.76314905     0.40300
H631        H  0.95211699  0.16021934  0.75840190     0.39900
H632        H  0.90683020  0.19295268  0.77973733     0.34800
C633        C  0.87598887  0.02455333  0.88537604    -0.26900
C634        C  0.90287079  0.01150328  0.85423986    -0.15000
C635        C  0.88483262  0.97159727  0.83304143     0.35600
C636        C  0.84569630  0.94119619  0.84610660    -0.26400
C637        C  0.82372287  0.95005391  0.87971248    -0.15600
C638        C  0.83692510  0.99420010  0.89840236     0.36700
N639        N  0.81425590  0.00729841  0.93181975    -0.89900
H640        H  0.88840755  0.05581749  0.90166208     0.17800
H641        H  0.83399660  0.90879184  0.83067999     0.17800
N642        N  0.90792947  0.96052716  0.79923315    -0.88900
H643        H  0.82027972  0.97787319  0.94986089     0.35200
H644        H  0.77514782  0.01232458  0.92781153     0.40300
H645        H  0.90111400  0.99137493  0.78246207     0.39900
H646        H  0.89057037  0.92958337  0.78723698     0.34800
C647        C  0.28893687  0.90452976  0.86689440    -0.26900
C648        C  0.27691649  0.87820320  0.89838967    -0.15000
C649        C  0.23999326  0.89868394  0.92137695     0.35600
C650        C  0.21048884  0.93973587  0.90994541    -0.26400
C651        C  0.21701430  0.96080419  0.87583237    -0.15600
C652        C  0.25917209  0.94573987  0.85528694     0.36700
N653        N  0.26869111  0.96889616  0.82132270    -0.89900
H654        H  0.31815080  0.88991635  0.84938649     0.17800
H655        H  0.17959154  0.95262960  0.92674160     0.17800
N656        N  0.23020611  0.87610364  0.95538744    -0.88900
H657        H  0.29966994  0.95165471  0.80881356     0.35200
H658        H  0.27929398  0.00610209  0.82620684     0.40300
H659        H  0.19217183  0.86498466  0.95589365     0.39900
H660        H  0.23520721  0.90355623  0.97499961     0.34800
C661        C  0.13744150  0.97824177  0.67406561    -0.26900
C662        C  0.11567016  0.93052996  0.66888880    -0.15000
C663        C  0.08697470  0.90986717  0.69717288     0.35600
C664        C  0.08122314  0.93639168  0.72934933    -0.26400
C665        C  0.10407788  0.98340821  0.73499542    -0.15600
C666        C  0.13226007  0.00475529  0.70655254     0.36700
N667        N  0.15737446  0.05222864  0.71094465    -0.89900
H668        H  0.16026642  0.99441563  0.65304083     0.17800
H669        H  0.05950011  0.91903456  0.75049121     0.17800
N670        N  0.06464668  0.86107439  0.69404918    -0.88900
H671        H  0.12920792  0.08013195  0.71207579     0.35200
H672        H  0.17949654  0.06059774  0.68863607     0.40300
H673        H  0.02554245  0.86476645  0.69822117     0.39900
H674        H  0.07964090  0.83819100  0.71430377     0.34800
C675        C  0.04167139  0.80887753  0.22304538    -0.26900
C676        C  0.98887827  0.81563402  0.21856175    -0.15000
C677        C  0.95714718  0.77346184  0.22146297     0.35600
C678        C  0.97925288  0.72517156  0.21981148    -0.26400
C679        C  0.03212303  0.71909476  0.21530123    -0.15600
C680        C  0.06366709  0.76079359  0.22091203     0.36700
N681        N  0.11782988  0.75540601  0.22012854    -0.89900
H682        H  0.06645089  0.84128784  0.22273221     0.17800
H683        H  0.95478484  0.69270063  0.21752689     0.17800
N684        N  0.90286736  0.77964631  0.22153092    -0.88900
H685        H  0.13236165  0.77005885  0.24390870     0.35200
H686        H  0.13165835  0.77710583  0.19904430     0.40300
H687        H  0.89324400  0.79851434  0.24503566     0.39900
H688        H  0.88507823  0.74464009  0.22268620     0.34800
C689        C  0.87161041  0.83448523  0.05812101    -0.26900
C690        C  0.84682756  0.86054121  0.08576459    -0.15000
C691        C  0.79453526  0.87234159  0.08127111     0.35600
C692        C  0.77011508  0.86196321  0.04844502    -0.26400
C693        C  0.79618130  0.83944221  0.01976572    -0.15600
C694        C  0.84712521  0.82380878  0.02558912     0.36700
N695        N  0.87513711  0.79842060  0.99823081    -0.89900
H696        H  0.91133945  0.82419517  0.06093487     0.17800
H697        H  0.73071679  0.87304628  0.04497897     0.17800
N698        N  0.76651878  0.89600255  0.10957317    -0.88900
H699        H  0.88757970  0.76376016  0.00839609     0.35200
H700        H  0.90714574  0.81987331  0.99224352     0.40300
H701        H  0.76496528  0.87036027  0.13074764     0.39900
H702        H  0.72896184  0.90302273  0.10176970     0.34800
C703        C  0.78804487  0.13685851  0.08614014    -0.26900
C704        C  0.75375564  0.15691883  0.11100104    -0.15000
C705        C  0.74826198  0.13270796  0.14442394     0.35600
C706        C  0.78073454  0.09268181  0.15362448    -0.26400
C707        C  0.81928805  0.07719061  0.13043431    -0.15600
C708        C  0.82116734  0.09741862  0.09555798     0.36700
N709        N  0.85827789  0.07944160  0.07045374    -0.89900
H710        H  0.79167781  0.15447742  0.06018202     0.17800
H711        H  0.77859578  0.07674665  0.18021245     0.17800
N712        N  0.71295422  0.15118403  0.17036899    -0.88900
H713        H  0.85502648  0.09878443  0.04621722     0.35200
H714        H  0.85014069  0.04175427  0.06508110     0.40300
H715        H  0.73335298  0.16156546  0.19315792     0.39900
H716        H  0.68882505  0.12170572  0.17735068     0.34800
C717        C  0.94815545  0.12138532  0.30726256    -0.26900
C718        C  0.91921750  0.09880563  0.33433531    -0.15000
C719        C  0.90319123  0.04855140  0.32909549     0.35600
C720        C  0.91207759  0.02425643  0.29632071    -0.26400
C721        C  0.93701502  0.04851866  0.26801505    -0.15600
C722        C  0.95732690  0.09691748  0.27453043     0.36700
N723        N  0.98635642  0.12221675  0.24780657    -0.89900
H724        H  0.96194607  0.15938790  0.31070750     0.17800
H725        H  0.89734722  0.98664633  0.29268905     0.17800
N726        N  0.87627424  0.02223417  0.35644497    -0.88900
H727        H  0.02212367  0.13016052  0.25858466     0.35200
H728        H  0.96825133  0.15639801  0.24190254     0.40300
H729        H  0.89655018  0.98936376  0.36259867     0.39900
H730        H  0.84080968  0.01190107  0.34621589     0.34800
C731        C  0.04537892  0.04888826  0.99149322    -0.26900
C732        C  0.02634683  0.01715602  0.96471072    -0.15000
C733        C  0.99385870  0.97729005  0.97413034     0.35600
C734        C  0.98169362  0.96999978  0.01015491    -0.26400
C735        C  0.00037547  0.00217730  0.03689328    -0.15600
C736        C  0.03262351  0.04201390  0.02725445     0.36700
N737        N  0.05330803  0.07524075  0.05355799    -0.89900
H738        H  0.07034156  0.07969570  0.98468120     0.17800
H739        H  0.95682669  0.93928441  0.01727375     0.17800
N740        N  0.97228555  0.94518902  0.94727241    -0.88900
H741        H  0.04190590  0.11195311  0.04714670     0.35200
H742        H  0.09293794  0.07347619  0.05200826     0.40300
H743        H  0.94749310  0.96718098  0.93181164     0.39900
H744        H  0.95015207  0.91712665  0.95891938     0.34800
C745        C  0.54743492  0.30473562  0.71510534    -0.26900
C746        C  0.49454688  0.31220916  0.71182445    -0.15000
C747        C  0.46226030  0.27044016  0.71521642     0.35600
C748        C  0.48369038  0.22180845  0.71516813    -0.26400
C749        C  0.53643898  0.21444924  0.71109342    -0.15600
C750        C  0.56867337  0.25618679  0.71405591     0.36700
N751        N  0.62265638  0.25002130  0.71162146    -0.89900
H752        H  0.57268694  0.33671639  0.71363679     0.17800
H753        H  0.45872622  0.18959574  0.71394768     0.17800
N754        N  0.40802362  0.27708649  0.71420117    -0.88900
H755        H  0.63902793  0.26621179  0.73427080     0.35200
H756        H  0.63520621  0.26992989  0.68927461     0.40300
H757        H  0.39761919  0.29634328  0.73739575     0.39900
H758        H  0.38977272  0.24232847  0.71513079     0.34800
C759        C  0.38369824  0.02776230  0.60458408    -0.26900
C760        C  0.40318454  0.02176457  0.63942965    -0.15000
C761        C  0.37683397  0.99176053  0.66395118     0.35600
C762        C  0.33524295  0.96373034  0.65224251    -0.26400
C763        C  0.32013315  0.96460501  0.61624951    -0.15600
C764        C  0.34251637  0.99900855  0.59258994     0.36700
N765        N  0.32703502  0.00078738  0.55577456    -0.89900
H766        H  0.40366228  0.05105757  0.58555462     0.17800
H767        H  0.31719260  0.93809490  0.67073346     0.17800
N768        N  0.39375658  0.98767530  0.70021520    -0.88900
H769        H  0.34956127  0.02587996  0.54144409     0.35200
H770        H  0.29000634  0.01533504  0.55493712     0.40300
H771        H  0.40212381  0.94977331  0.70545918     0.39900
H772        H  0.36379956  0.99853958  0.71673237     0.34800
C773        C  0.65779040  0.19410909  0.55647214    -0.26900
C774        C  0.68039003  0.16248072  0.58237583    -0.15000
C775        C  0.72972002  0.14305317  0.57561567     0.35600
C776        C  0.75332982  0.15296026  0.54273134    -0.26400
C777        C  0.72955483  0.18213859  0.51602934    -0.15600
C778        C  0.68178174  0.20449725  0.52368725     0.36700
N779        N  0.65717807  0.23694061  0.49806521    -0.89900
H780        H  0.62034105  0.20978579  0.56129594     0.17800
H781        H  0.79015509  0.13610552  0.53756602     0.17800
N782        N  0.75518334  0.11160972  0.60144555    -0.88900
H783        H  0.62189314  0.24928699  0.50748866     0.35200
H784        H  0.67959906  0.26902871  0.49534998     0.40300
H785        H  0.76372730  0.13410587  0.62347475     0.39900
H786        H  0.78996395  0.09846243  0.59161463     0.34800
C787        C  0.71302077  0.93641433  0.59704227    -0.26900
C788        C  0.71533128  0.95314733  0.63258019    -0.15000
C789        C  0.75416912  0.93426663  0.65513330     0.35600
C790        C  0.78506750  0.89463735  0.64321597    -0.26400
C791        C  0.77748928  0.87303640  0.60933830    -0.15600
C792        C  0.74394409  0.89676050  0.58522512     0.36700
N793        N  0.73948195  0.87911916  0.54926723    -0.89900
H794        H  0.68480518  0.95209055  0.57893625     0.17800
H795        H  0.81141389  0.87743034  0.66198568     0.17800
N796        N  0.76039325  0.95148178  0.69106033    -0.88900
H797        H  0.74747634  0.90914110  0.53216495     0.35200
H798        H  0.70179921  0.86849120  0.54488955     0.40300
H799        H  0.72637635  0.94590889  0.70481906     0.39900
H800        H  0.76819386  0.98994436  0.69042714     0.34800
C801        C  0.62203445  0.00127628  0.79548973    -0.26900
C802        C  0.59415763  0.97904415  0.76760704    -0.15000
C803        C  0.57170169  0.93160588  0.77424661     0.35600
C804        C  0.58037445  0.90647089  0.80689995    -0.26400
C805        C  0.61129079  0.92709705  0.83379315    -0.15600
C806        C  0.63078601  0.97608078  0.82814830     0.36700
N807        N  0.66121150  0.00000341  0.85487141    -0.89900
H808        H  0.63916921  0.03779570  0.79153939     0.17800
H809        H  0.56428230  0.86940492  0.81048836     0.17800
N810        N  0.54078542  0.90791238  0.74770592    -0.88900
H811        H  0.64390671  0.03430993  0.86140124     0.35200
H812        H  0.69679658  0.00762464  0.84390386     0.40300
H813        H  0.50494591  0.90154753  0.75869249     0.39900
H814        H  0.55712596  0.87298949  0.74163115     0.34800
C815        C  0.45868907  0.77443642  0.27808324    -0.26900
C816        C  0.49153972  0.81519022  0.28220074    -0.15000
C817        C  0.54439106  0.80718954  0.27753800     0.35600
C818        C  0.56388461  0.75784271  0.27830243    -0.26400
C819        C  0.53108836  0.71715504  0.28280397    -0.15600
C820        C  0.47811366  0.72517898  0.27772060     0.36700
N821        N  0.44302643  0.68416451  0.27507872    -0.89900
H822        H  0.41794045  0.78018189  0.27955082     0.17800
H823        H  0.60457334  0.75192226  0.28037015     0.17800
N824        N  0.57828595  0.84934214  0.27641787    -0.88900
H825        H  0.42148646  0.68340971  0.29844280     0.35200
H826        H  0.46229587  0.64976335  0.27304279     0.40300
H827        H  0.56966109  0.86989419  0.25333571     0.39900
H828        H  0.61593427  0.83706732  0.27389275     0.34800
C829        C  0.27268406  0.85738290  0.45160261    -0.26900
C830        C  0.29973305  0.84572335  0.48312514    -0.15000
C831        C  0.35328988  0.83877915  0.48061472     0.35600
C832        C  0.37791855  0.84568404  0.44767748    -0.26400
C833        C  0.35134061  0.86063279  0.41683152    -0.15600
C834        C  0.29770530  0.86454792  0.41860851     0.36700
N835        N  0.26876866  0.87638790  0.38705180    -0.89900
H836        H  0.23178648  0.86184803  0.45276127     0.17800
H837        H  0.41896243  0.84255311  0.44678729     0.17800
N838        N  0.38335665  0.82709621  0.51172850    -0.88900
H839        H  0.22996383  0.87809012  0.39280500     0.35200
H840        H  0.27374001  0.84663835  0.36914571     0.40300
H841        H  0.38328449  0.85906295  0.52797480     0.39900
H842        H  0.42129925  0.82048994  0.50491471     0.34800
C843        C  0.65146666  0.99541437  0.38721063    -0.26900
C844        C  0.62744825  0.00446342  0.35414901    -0.15000
C845        C  0.64819018  0.04057136  0.33093561     0.35600
C846        C  0.68705716  0.07189989  0.34318834    -0.26400
C847        C  0.70607679  0.06743450  0.37818522    -0.15600
C848        C  0.69042082  0.02684006  0.39947738     0.36700
N849        N  0.71081174  0.01989496  0.43463040    -0.89900
H850        H  0.63664779  0.96727260  0.40526811     0.17800
H851        H  0.70036538  0.10177408  0.32592316     0.17800
N852        N  0.62822363  0.04719272  0.29559256    -0.88900
H853        H  0.68088940  0.02209498  0.45283028     0.35200
H854        H  0.72639152  0.98363218  0.43611185     0.40300
H855        H  0.65801007  0.04206039  0.27755601     0.39900
H856        H  0.61512971  0.08428453  0.29308471     0.34800
C857        C  0.48815225  0.96876420  0.49044363    -0.26900
C858        C  0.50492851  0.00151475  0.46351872    -0.15000
C859        C  0.53656645  0.04210035  0.47269985     0.35600
C860        C  0.55007402  0.04952637  0.50836127    -0.26400
C861        C  0.53282932  0.01717298  0.53536469    -0.15600
C862        C  0.50177021  0.97611654  0.52611810     0.36700
N863        N  0.48293064  0.94235432  0.55274015    -0.89900
H864        H  0.46402173  0.93716971  0.48391692     0.17800
H865        H  0.57415394  0.08115620  0.51486519     0.17800
N866        N  0.55588755  0.07547634  0.44600791    -0.88900
H867        H  0.49506016  0.90593955  0.54630302     0.35200
H868        H  0.44321501  0.94317128  0.55166263     0.40300
H869        H  0.59558325  0.07420585  0.44713779     0.39900
H870        H  0.54414981  0.11206425  0.45228901     0.34800
C871        C  0.50327128  0.21318257  0.03212233    -0.26900
C872        C  0.46141231  0.24532075  0.03635810    -0.15000
C873        C  0.46813918  0.29774265  0.03163020     0.35600
C874        C  0.51757549  0.31748254  0.03135219    -0.26400
C875        C  0.55970627  0.28544213  0.03534300    -0.15600
C876        C  0.55256738  0.23276513  0.03121831     0.36700
N877        N  0.59460122  0.19805683  0.02921593    -0.89900
H878        H  0.49844325  0.17279076  0.03395828     0.17800
H879        H  0.52264966  0.35784016  0.03300283     0.17800
N880        N  0.42473147  0.33092213  0.03122280    -0.88900
H881        H  0.59600699  0.17763499  0.05308188     0.35200
H882        H  0.62897936  0.21707630  0.02653693     0.40300
H883        H  0.40328201  0.32234072  0.00853065     0.39900
H884        H  0.43611543  0.36833543  0.02844323     0.34800
C885        C  0.27719147  0.39820922  0.14496026    -0.26900
C886        C  0.26983956  0.37758555  0.11071809    -0.15000
C887        C  0.23721424  0.40243813  0.08644215     0.35600
C888        C  0.20769722  0.44316233  0.09836100    -0.26400
C889        C  0.21044294  0.45968368  0.13389980    -0.15600
C890        C  0.24742157  0.43891094  0.15693654     0.36700
N891        N  0.25209859  0.45664899  0.19300069    -0.89900
H892        H  0.30263459  0.37961530  0.16367229     0.17800
H893        H  0.18010346  0.46024217  0.08041848     0.17800
N894        N  0.23227031  0.38462928  0.05041483    -0.88900
H895        H  0.28072088  0.43681181  0.20656818     0.35200
H896        H  0.21806592  0.44890532  0.20611141     0.40300
H897        H  0.26747656  0.38917158  0.03804498     0.39900
H898        H  0.20621906  0.40681372  0.03613940     0.34800
C899        C  0.44952675  0.11664481  0.19277192    -0.26900
C900        C  0.41156533  0.09982286  0.16915926    -0.15000
C901        C  0.38472980  0.05558072  0.17812951     0.35600
C902        C  0.39556389  0.03006984  0.21004884    -0.26400
C903        C  0.43177813  0.04796320  0.23438876    -0.15600
C904        C  0.46004473  0.09124272  0.22516169     0.36700
N905        N  0.49884614  0.10967329  0.24876349    -0.89900
H906        H  0.47030941  0.15050063  0.18638909     0.17800
H907        H  0.37319355  0.99727856  0.21660717     0.17800
N908        N  0.34421267  0.03761655  0.15601100    -0.88900
H909        H  0.51545734  0.14213383  0.23829635     0.35200
H910        H  0.52754554  0.08233894  0.25008461     0.40300
H911        H  0.31086815  0.03748394  0.17109737     0.39900
H912        H  0.35259125  0.00050906  0.14875927     0.34800
C913        C  0.14664080  0.03843549  0.16760327    -0.26900
C914        C  0.12627713  0.00403834  0.14318320    -0.15000
C915        C  0.14986546  0.99837064  0.10950422     0.35600
C916        C  0.18908696  0.03104276  0.09956492    -0.26400
C917        C  0.20434699  0.06983688  0.12236083    -0.15600
C918        C  0.18501668  0.07156986  0.15742457     0.36700
N919        N  0.20269023  0.10847698  0.18231554    -0.89900
H920        H  0.12989171  0.04254818  0.19381963     0.17800
H921        H  0.20433254  0.02881390  0.07279702     0.17800
N922        N  0.13151317  0.96249172  0.08414031    -0.88900
H923        H  0.21683907  0.08963794  0.20481277     0.35200
H924        H  0.17160453  0.13042208  0.19025973     0.40300
H925        H  0.16178412  0.93880726  0.07717087     0.39900
H926        H  0.11987748  0.98186590  0.06120491     0.34800
C927        C  0.22201854  0.15686160  0.92416786    -0.26900
C928        C  0.17045698  0.17069799  0.92137175    -0.15000
C929        C  0.14799885  0.19667530  0.95033814     0.35600
C930        C  0.17614791  0.20395483  0.98206224    -0.26400
C931        C  0.22668375  0.18660524  0.98578032    -0.15600
C932        C  0.25006382  0.16420766  0.95551338     0.36700
N933        N  0.30175272  0.14689706  0.95562600    -0.89900
H934        H  0.24058617  0.13771809  0.90224224     0.17800
H935        H  0.15774703  0.22221654  0.00440536     0.17800
N936        N  0.09632045  0.21432118  0.94806219    -0.88900
H937        H  0.30601653  0.11811397  0.97445717     0.35200
H938        H  0.32550563  0.17699736  0.96189470     0.40300
H939        H  0.09497881  0.24246744  0.92853889     0.39900
H940        H  0.08520706  0.23134036  0.97194271     0.34800
C941        C  0.96904098  0.29440323  0.46958121    -0.26900
C942        C  0.96418637  0.24195794  0.46536185    -0.15000
C943        C  0.00808952  0.21151427  0.46769822     0.35600
C944        C  0.05595581  0.23464981  0.46692358    -0.26400
C945        C  0.06021644  0.28718597  0.46270593    -0.15600
C946        C  0.01665373  0.31740070  0.46705690     0.36700
N947        N  0.01963584  0.37105377  0.46422093    -0.89900
H948        H  0.93536126  0.31815512  0.46909076     0.17800
H949        H  0.08974437  0.21126995  0.46489008     0.17800
N950        N  0.00417625  0.15765279  0.46613199    -0.88900
H951        H  0.00376499  0.38662858  0.48725464     0.35200
H952        H  0.99745371  0.38255749  0.44243219     0.40300
H953        H  0.98589977  0.14592103  0.48939283     0.39900
H954        H  0.04024300  0.14090986  0.46649871     0.34800
C955        C  0.13101357  0.48510830  0.32940517    -0.26900
C956        C  0.10908990  0.43738034  0.33435944    -0.15000
C957        C  0.07528526  0.41979826  0.30785114     0.35600
C958        C  0.06773778  0.44747474  0.27617879    -0.26400
C959        C  0.09287016  0.49321518  0.26988421    -0.15600
C960        C  0.12293615  0.51339095  0.29787683     0.36700
N961        N  0.14696682  0.56148691  0.29387758    -0.89900
H962        H  0.15640148  0.49975672  0.34962603     0.17800
H963        H  0.04318840  0.43186003  0.25580895     0.17800
N964        N  0.04929935  0.37308883  0.31238545    -0.88900
H965        H  0.16957823  0.56963130  0.31608362     0.35200
H966        H  0.11817695  0.58883773  0.29330728     0.40300
H967        H  0.05922380  0.34941747  0.29123354     0.39900
H968        H  0.01024080  0.38025495  0.31081149     0.34800
C969        C  0.31878852  0.09245038  0.40395411    -0.26900
C970        C  0.31849737  0.07648496  0.36822446    -0.15000
C971        C  0.28358855  0.09834741  0.34403480     0.35600
C972        C  0.25258582  0.13851322  0.35549611    -0.26400
C973        C  0.25709794  0.15819098  0.39023679    -0.15600
C974        C  0.28834501  0.13297180  0.41525401     0.36700
N975        N  0.29081215  0.15011030  0.45156884    -0.89900
H976        H  0.34493571  0.07488432  0.42270352     0.17800
H977        H  0.22852085  0.15758837  0.33614502     0.17800
N978        N  0.28251677  0.08253040  0.30736229    -0.88900
H979        H  0.31598639  0.12777021  0.46647176     0.35200
H980        H  0.25482921  0.14523642  0.46272615     0.40300
H981        H  0.31736178  0.09204573  0.29594801     0.39900
H982        H  0.25464098  0.10243304  0.29311536     0.34800
C983        C  0.28448984  0.24072621  0.28019509    -0.26900
C984        C  0.25625298  0.28464069  0.28677549    -0.15000
C985        C  0.23463085  0.31158959  0.25804067     0.35600
C986        C  0.24203657  0.29461744  0.22317317    -0.26400
C987        C  0.27084421  0.25107132  0.21645638    -0.15600
C988        C  0.29204566  0.22362396  0.24543168     0.36700
N989        N  0.32003753  0.17764199  0.24058483    -0.89900
H990        H  0.29975663  0.21883686  0.30225846     0.17800
H991        H  0.22639594  0.31647878  0.20121714     0.17800
N992        N  0.20593311  0.35675083  0.26421197    -0.88900
H993        H  0.35389790  0.18518811  0.22726507     0.35200
H994        H  0.29815153  0.15303385  0.22525995     0.40300
H995        H  0.16979358  0.35236609  0.25299649     0.39900
H996        H  0.22395528  0.38622475  0.25100283     0.34800
C997        C  0.33294903  0.46646474  0.34874556    -0.26900
C998        C  0.31861658  0.46715983  0.38480620    -0.15000
C999        C  0.33971960  0.50333282  0.40782022     0.35600
C1000       C  0.37880865  0.53433016  0.39504004    -0.26400
C1001       C  0.39785750  0.52867717  0.36014743    -0.15600
C1002       C  0.37259204  0.49650454  0.33633525     0.36700
N1003       N  0.38877134  0.49227798  0.30002548    -0.89900
H1004       H  0.31572734  0.43971750  0.33062671     0.17800
H1005       H  0.39784376  0.55921774  0.41356114     0.17800
N1006       N  0.32522212  0.50502797  0.44474074    -0.88900
H1007       H  0.35775828  0.50098025  0.28356378     0.35200
H1008       H  0.39909294  0.45478332  0.29536584     0.40300
H1009       H  0.28752835  0.51759743  0.44576081     0.39900
H1010       H  0.34679137  0.53159139  0.45855171     0.34800
C1011       C  0.33925920  0.32102906  0.52470782    -0.26900
C1012       C  0.29179402  0.34482025  0.51915398    -0.15000
C1013       C  0.27053027  0.37226185  0.54809461     0.35600
C1014       C  0.29847255  0.37880112  0.57964236    -0.26400
C1015       C  0.34776369  0.35889796  0.58391029    -0.15600
C1016       C  0.36708349  0.32715695  0.55671999     0.36700
N1017       N  0.41541188  0.30227305  0.56112404    -0.89900
H1018       H  0.35558713  0.29846990  0.50355862     0.17800
H1019       H  0.28218182  0.40230291  0.60030110     0.17800
N1020       N  0.22157643  0.39603056  0.54614222    -0.88900
H1021       H  0.42442556  0.28104826  0.53853653     0.35200
H1022       H  0.41186900  0.27670990  0.58220353     0.40300
H1023       H  0.19418656  0.36863913  0.54105352     0.39900
H1024       H  0.22162101  0.42278381  0.52568022     0.34800
loop_ 
_geom_bond_atom_site_label_1 
_geom_bond_atom_site_label_2 
_geom_bond_distance 
_geom_bond_site_symmetry_2 
_ccdc_geom_bond_type 
Fe1          O17   2.092       .  S
Fe1           O7   2.024       .  S
Fe1          O14   2.023       .  S
Fe1           O6   2.090       .  S
Fe1          O12   1.936       .  S
Fe2           O5   2.100       .  S
Fe2           O9   2.053       .  S
Fe2          O13   2.101       .  S
Fe2          O18   2.038       .  S
Fe2          O12   1.932       .  S
Fe3          O21   2.069       .  S
Fe3           O8   2.096       .  S
Fe3          O15   2.119       .  S
Fe3           O4   2.071       .  S
Fe3          O12   1.943       .  S
O4           C11   1.267       .  A
O5           C19   1.278       .  A
O6           C11   1.271       .  A
O7           C10   1.267       .  A
O8           C20   1.275       .  A
O9           C22   1.269       .  A
C10          O15   1.282       .  A
C10         C945   1.480       .  S
C11         C956   1.504       .  S
O13          C16   1.277       .  A
O14          C16   1.263       .  A
C16         C984   1.467       .  S
O17          C22   1.273       .  A
O18          C20   1.268       .  A
C19          O21   1.271       .  A
C19        C1012   1.506       .  S
C20         C998   1.475       .  S
C22         C973   1.484       .  S
Fe23         O39   2.024       .  S
Fe23         O29   2.085       .  S
Fe23         O36   2.081       .  S
Fe23         O28   2.024       .  S
Fe23         O34   1.938       .  S
Fe24         O27   2.035       .  S
Fe24         O31   2.097       .  S
Fe24         O35   2.053       .  S
Fe24         O40   2.098       .  S
Fe24         O34   1.932       .  S
Fe25         O43   2.100       .  S
Fe25         O30   2.060       .  S
Fe25         O37   2.054       .  S
Fe25         O26   2.123       .  S
Fe25         O34   1.940       .  S
O26          C33   1.283       .  A
O27          C41   1.266       .  A
O28          C33   1.266       .  A
O29          C32   1.269       .  A
O30          C42   1.270       .  A
O31          C44   1.276       .  A
C32          O37   1.264       .  A
C32         C900   1.497       .  S
C33         C872   1.481       .  S
O35          C38   1.269       .  A
O36          C38   1.271       .  A
C38         C886   1.480       .  S
O39          C44   1.262       .  A
O40          C42   1.277       .  A
C41          O43   1.277       .  A
C41         C917   1.477       .  S
C42         C931   1.504   1_554  S
C44         C987   1.468       .  S
Fe45         O61   2.024       .  S
Fe45         O51   2.091       .  S
Fe45         O58   2.088       .  S
Fe45         O50   2.020       .  S
Fe45         O56   1.936       .  S
Fe46         O49   2.040       .  S
Fe46         O53   2.092       .  S
Fe46         O57   2.048       .  S
Fe46         O62   2.088       .  S
Fe46         O56   1.928   1_545  S
Fe47         O65   2.103   1_565  S
Fe47         O52   2.067       .  S
Fe47         O59   2.072       .  S
Fe47         O48   2.125       .  S
Fe47         O56   1.939       .  S
O48          C55   1.283       .  A
O49          C63   1.267       .  A
O50          C55   1.265       .  A
O51          C54   1.273       .  A
O52          C64   1.273   1_565  A
O53          C66   1.276   1_545  A
C54          O59   1.267       .  A
C54         C833   1.502       .  S
C55         C816   1.480       .  S
O57          C60   1.266   1_545  A
O58          C60   1.272       .  A
C60         C844   1.480   1_565  S
O61          C66   1.265       .  A
O62          C64   1.274       .  A
C63          O65   1.278       .  A
C63         C970   1.478       .  S
C64         C903   1.494       .  S
C66         C858   1.474   1_565  S
Fe67         O83   2.066       .  S
Fe67         O73   2.024       .  S
Fe67         O80   2.030       .  S
Fe67         O72   2.076       .  S
Fe67         O78   1.943       .  S
Fe68         O71   2.092       .  S
Fe68         O75   2.057   1_565  S
Fe68         O79   2.091       .  S
Fe68         O84   2.042       .  S
Fe68         O78   1.932   1_565  S
Fe69         O87   2.086       .  S
Fe69         O74   2.095       .  S
Fe69         O81   2.122       .  S
Fe69         O70   2.071       .  S
Fe69         O78   1.943       .  S
O70          C77   1.266       .  A
O71          C85   1.275   1_565  A
O72          C77   1.267       .  A
O73          C76   1.267       .  A
O74          C86   1.275   1_545  A
O75          C88   1.269       .  A
C76          O81   1.284       .  A
C76         C749   1.482       .  S
C77         C774   1.502       .  S
O79          C82   1.275   1_565  A
O80          C82   1.266       .  A
C82         C861   1.476       .  S
O83          C88   1.268       .  A
O84          C86   1.268       .  A
C85          O87   1.277       .  A
C85         C802   1.508   1_545  S
C86         C788   1.479       .  S
C88         C760   1.474       .  S
Fe89        O105   2.087   1_655  S
Fe89         O95   2.022   1_655  S
Fe89        O102   2.026       .  S
Fe89         O94   2.087       .  S
Fe89        O100   1.939       .  S
Fe90         O93   2.095       .  S
Fe90         O97   2.046   1_655  S
Fe90        O101   2.100       .  S
Fe90        O106   2.036       .  S
Fe90        O100   1.928   1_545  S
Fe91        O109   2.078       .  S
Fe91         O96   2.092   1_565  S
Fe91        O103   2.120       .  S
Fe91         O92   2.074       .  S
Fe91        O100   1.939       .  S
O92          C99   1.267       .  A
O93         C107   1.275       .  A
O94          C99   1.270       .  A
O95          C98   1.267   1_455  A
O96         C108   1.276       .  A
O97         C110   1.265   1_545  A
C98         O103   1.283       .  A
C98         C676   1.480       .  S
C99         C690   1.504       .  S
O101        C104   1.278   1_545  A
O102        C104   1.266       .  A
C104        C735   1.477   1_665  S
O105        C110   1.269       .  A
O106        C108   1.267       .  A
C107        O109   1.275   1_545  A
C107        C721   1.507       .  S
C108        C707   1.474       .  S
C110        C914   1.482   1_565  S
Fe111       O127   2.020       .  S
Fe111       O117   2.088       .  S
Fe111       O124   2.081   1_455  S
Fe111       O116   2.024       .  S
Fe111       O122   1.942       .  S
Fe112       O115   2.036       .  S
Fe112       O119   2.099       .  S
Fe112       O123   2.054   1_465  S
Fe112       O128   2.096       .  S
Fe112       O122   1.935   1_565  S
Fe113       O131   2.103       .  S
Fe113       O118   2.068       .  S
Fe113       O125   2.056       .  S
Fe113       O114   2.122       .  S
Fe113       O122   1.950       .  S
O114        C121   1.283       .  A
O115        C129   1.266       .  A
O116        C121   1.266       .  A
O117        C120   1.270       .  A
O118        C130   1.272       .  A
O119        C132   1.276   1_565  A
C120        O125   1.266       .  A
C120        C928   1.501       .  S
C121        C620   1.482       .  S
O123        C126   1.268       .  A
O124        C126   1.270       .  A
C126        C634   1.486       .  S
O127        C132   1.264       .  A
O128        C130   1.278   1_565  A
C129        O131   1.277   1_565  A
C129        C651   1.482       .  S
C130        C665   1.505   1_545  S
C132        C732   1.475       .  S
Fe133       O149   2.095       .  S
Fe133       O139   2.020       .  S
Fe133       O146   2.018       .  S
Fe133       O138   2.094       .  S
Fe133       O144   1.936       .  S
Fe134       O137   2.093       .  S
Fe134       O141   2.049       .  S
Fe134       O145   2.089       .  S
Fe134       O150   2.034       .  S
Fe134       O144   1.931       .  S
Fe135       O153   2.067       .  S
Fe135       O140   2.100       .  S
Fe135       O147   2.123       .  S
Fe135       O136   2.062       .  S
Fe135       O144   1.939       .  S
O136        C143   1.265       .  A
O137        C151   1.275       .  A
O138        C143   1.272       .  A
O139        C142   1.267       .  A
O140        C152   1.277       .  A
O141        C154   1.266       .  A
C142        O147   1.283       .  A
C142        C942   1.481       .  S
C143        C718   1.504       .  S
O145        C148   1.275       .  A
O146        C148   1.262       .  A
C148        C606   1.468       .  S
O149        C154   1.273       .  A
O150        C152   1.267       .  A
C151        O153   1.273       .  A
C151        C777   1.501       .  S
C152        C847   1.478       .  S
C154        C592   1.487       .  S
Fe155       O171   2.029       .  S
Fe155       O161   2.076       .  S
Fe155       O168   2.082       .  S
Fe155       O160   2.023       .  S
Fe155       O166   1.943       .  S
Fe156       O159   2.035       .  S
Fe156       O163   2.081       .  S
Fe156       O167   2.047       .  S
Fe156       O172   2.074       .  S
Fe156       O166   1.926       .  S
Fe157       O175   2.102       .  S
Fe157       O162   2.086       .  S
Fe157       O169   2.081       .  S
Fe157       O158   2.131       .  S
Fe157       O166   1.940       .  S
O158        C165   1.286       .  A
O159        C173   1.267       .  A
O160        C165   1.267       .  A
O161        C164   1.267       .  A
O162        C174   1.276       .  A
O163        C176   1.274       .  A
C164        O169   1.269       .  A
C164        C550   1.506       .  S
C165        C875   1.484       .  S
O167        C170   1.266       .  A
O168        C170   1.270       .  A
C170        C704   1.479       .  S
O171        C176   1.264       .  A
O172        C174   1.270       .  A
C173        O175   1.278       .  A
C173        C564   1.477       .  S
C174        C578   1.506   1_554  S
C176        C609   1.469       .  S
Fe177       O193   2.040       .  S
Fe177       O183   2.077       .  S
Fe177       O190   2.080       .  S
Fe177       O182   2.029       .  S
Fe177       O188   1.948       .  S
Fe178       O181   2.033       .  S
Fe178       O185   2.096       .  S
Fe178       O189   2.054       .  S
Fe178       O194   2.088       .  S
Fe178       O188   1.928       .  S
Fe179       O197   2.091       .  S
Fe179       O184   2.087       .  S
Fe179       O191   2.070       .  S
Fe179       O180   2.117       .  S
Fe179       O188   1.953       .  S
O180        C187   1.282       .  A
O181        C195   1.267       .  A
O182        C187   1.267       .  A
O183        C186   1.267       .  A
O184        C196   1.276       .  A
O185        C198   1.275       .  A
C186        O191   1.268       .  A
C186        C494   1.500       .  S
C187        C480   1.477       .  S
O189        C192   1.269       .  A
O190        C192   1.270       .  A
C192        C791   1.479       .  S
O193        C198   1.266       .  A
O194        C196   1.274       .  A
C195        O197   1.275       .  A
C195        C522   1.471       .  S
C196        C536   1.509       .  S
C198        C508   1.480       .  S
Fe199       O215   2.086       .  S
Fe199       O205   2.027       .  S
Fe199       O212   2.032       .  S
Fe199       O204   2.089       .  S
Fe199       O210   1.946       .  S
Fe200       O203   2.090       .  S
Fe200       O207   2.046       .  S
Fe200       O211   2.102       .  S
Fe200       O216   2.035       .  S
Fe200       O210   1.936       .  S
Fe201       O219   2.078       .  S
Fe201       O206   2.099       .  S
Fe201       O213   2.121       .  S
Fe201       O202   2.069       .  S
Fe201       O210   1.950       .  S
O202        C209   1.266       .  A
O203        C217   1.273       .  A
O204        C209   1.271       .  A
O205        C208   1.267       .  A
O206        C218   1.278       .  A
O207        C220   1.266       .  A
C208        O213   1.283       .  A
C208        C455   1.480       .  S
C209        C805   1.507       .  S
O211        C214   1.276       .  A
O212        C214   1.266       .  A
C214        C511   1.482       .  S
O215        C220   1.271       .  A
O216        C218   1.268       .  A
C217        O219   1.272       .  A
C217        C693   1.507   1_556  S
C218        C637   1.483       .  S
C220        C466   1.482       .  S
Fe221       O237   2.030       .  S
Fe221       O227   2.085       .  S
Fe221       O234   2.081       .  S
Fe221       O226   2.029       .  S
Fe221       O232   1.947       .  S
Fe222       O225   2.041       .  S
Fe222       O229   2.089       .  S
Fe222       O233   2.057       .  S
Fe222       O238   2.096       .  S
Fe222       O232   1.929       .  S
Fe223       O241   2.098       .  S
Fe223       O228   2.074       .  S
Fe223       O235   2.070       .  S
Fe223       O224   2.121       .  S
Fe223       O232   1.945       .  S
O224        C231   1.284       .  A
O225        C239   1.267       .  A
O226        C231   1.267       .  A
O227        C230   1.270       .  A
O228        C240   1.273       .  A
O229        C242   1.275       .  A
C230        O235   1.266       .  A
C230        C539   1.504       .  S
C231        C819   1.481       .  S
O233        C236   1.269       .  A
O234        C236   1.270       .  A
C236       C1001   1.481       .  S
O237        C242   1.266       .  A
O238        C240   1.277       .  A
C239        O241   1.276       .  A
C239        C595   1.479       .  S
C240        C553   1.507       .  S
C242        C441   1.472       .  S
Fe243       O259   2.075       .  S
Fe243       O249   2.028       .  S
Fe243       O256   2.035       .  S
Fe243       O248   2.081       .  S
Fe243       O254   1.944       .  S
Fe244       O247   2.078       .  S
Fe244       O251   2.050       .  S
Fe244       O255   2.082       .  S
Fe244       O260   2.030       .  S
Fe244       O254   1.932       .  S
Fe245       O263   2.084       .  S
Fe245       O250   2.100       .  S
Fe245       O257   2.116       .  S
Fe245       O246   2.071       .  S
Fe245       O254   1.947       .  S
O246        C253   1.268       .  A
O247        C261   1.272       .  A
O248        C253   1.268       .  A
O249        C252   1.267       .  A
O250        C262   1.276       .  A
O251        C264   1.267       .  A
C252        O257   1.283       .  A
C252        C746   1.482       .  S
C253       C1015   1.502       .  S
O255        C258   1.273       .  A
O256        C258   1.267       .  A
C258        C438   1.471       .  S
O259        C264   1.268       .  A
O260        C262   1.266       .  A
C261        O263   1.275       .  A
C261        C424   1.503       .  S
C262        C410   1.473       .  S
C264        C525   1.478       .  S
Fe265       O281   2.030       .  S
Fe265       O271   2.065       .  S
Fe265       O278   2.067       .  S
Fe265       O270   2.016       .  S
Fe265       O276   1.944       .  S
Fe266       O269   2.037       .  S
Fe266       O273   2.087       .  S
Fe266       O277   2.058       .  S
Fe266       O282   2.081       .  S
Fe266       O276   1.930       .  S
Fe267       O285   2.087       .  S
Fe267       O272   2.096       .  S
Fe267       O279   2.088       .  S
Fe267       O268   2.127       .  S
Fe267       O276   1.948       .  S
O268        C275   1.286       .  A
O269        C283   1.267       .  A
O270        C275   1.266       .  A
O271        C274   1.263       .  A
O272        C284   1.278       .  A
O273        C286   1.274       .  A
C274        O279   1.268       .  A
C274        C662   1.505       .  S
C275        C483   1.481       .  S
O277        C280   1.270       .  A
O278        C280   1.267       .  A
C280        C413   1.481       .  S
O281        C286   1.265       .  A
O282        C284   1.273       .  A
C283        O285   1.274       .  A
C283        C763   1.469       .  S
C284        C830   1.510       .  S
C286        C399   1.469       .  S
Fe287       O303   2.090       .  S
Fe287       O293   2.017       .  S
Fe287       O300   2.020       .  S
Fe287       O292   2.086       .  S
Fe287       O298   1.949       .  S
Fe288       O291   2.093       .  S
Fe288       O295   2.051       .  S
Fe288       O299   2.094       .  S
Fe288       O304   2.043       .  S
Fe288       O298   1.941       .  S
Fe289       O307   2.075       .  S
Fe289       O294   2.108       .  S
Fe289       O301   2.125       .  S
Fe289       O290   2.064       .  S
Fe289       O298   1.949       .  S
O290        C297   1.266       .  A
O291        C305   1.275       .  A
O292        C297   1.270       .  A
O293        C296   1.264       .  A
O294        C306   1.279       .  A
O295        C308   1.268       .  A
C296        O301   1.284       .  A
C296        C452   1.482       .  S
C297        C427   1.504       .  S
O299        C302   1.273       .  A
O300        C302   1.261       .  A
C302        C396   1.469       .  S
O303        C308   1.273       .  A
O304        C306   1.269       .  A
C305        O307   1.271       .  A
C305        C385   1.508   1_556  S
C306        C368   1.489       .  S
C308        C648   1.484       .  S
Fe309       O325   2.020       .  S
Fe309       O315   2.093       .  S
Fe309       O322   2.106   1_655  S
Fe309       O314   2.021   1_655  S
Fe309       O320   1.935       .  S
Fe310       O313   2.028       .  S
Fe310       O317   2.103       .  S
Fe310       O321   2.043   1_655  S
Fe310       O326   2.096       .  S
Fe310       O320   1.930       .  S
Fe311       O329   2.100       .  S
Fe311       O316   2.062       .  S
Fe311       O323   2.058       .  S
Fe311       O312   2.121       .  S
Fe311       O320   1.943       .  S
O312        C319   1.283       .  A
O313        C327   1.267       .  A
O314        C319   1.264   1_455  A
O315        C318   1.273       .  A
O316        C328   1.270       .  A
O317        C330   1.276       .  A
C318        O323   1.264       .  A
C318        C581   1.502       .  S
C319        C623   1.482       .  S
O321        C324   1.267       .  A
O322        C324   1.276       .  A
C324        C371   1.490       .  S
O325        C330   1.261       .  A
O326        C328   1.276       .  A
C327        O329   1.277       .  A
C327        C469   1.477       .  S
C328        C497   1.499       .  S
C330        C354   1.473   1_655  S
Fe331       O347   2.085   1_455  S
Fe331       O337   2.031       .  S
Fe331       O344   2.028       .  S
Fe331       O336   2.086       .  S
Fe331       O342   1.943       .  S
Fe332       O335   2.095       .  S
Fe332       O339   2.052   1_455  S
Fe332       O343   2.098       .  S
Fe332       O348   2.035       .  S
Fe332       O342   1.929       .  S
Fe333       O351   2.073       .  S
Fe333       O338   2.095       .  S
Fe333       O345   2.118       .  S
Fe333       O334   2.074       .  S
Fe333       O342   1.946       .  S
O334        C341   1.267       .  A
O335        C349   1.277       .  A
O336        C341   1.269       .  A
O337        C340   1.268       .  A
O338        C350   1.275       .  A
O339        C352   1.266       .  A
C340        O345   1.283       .  A
C340        C679   1.482       .  S
C341        C382   1.506       .  S
O343        C346   1.278       .  A
O344        C346   1.266       .  A
C346        C357   1.473       .  S
O347        C352   1.270       .  A
O348        C350   1.266       .  A
C349        O351   1.273       .  A
C349        C959   1.505       .  S
C350        C889   1.474       .  S
C352        C567   1.483       .  S
C353        C354   1.406   1_655  A
C353        C358   1.397   1_556  A
C353        H360   1.084       .  S
C354        C355   1.408       .  A
C355        C356   1.399   1_556  A
C355        N362   1.433       .  S
C356        C357   1.406       .  A
C356        H361   1.084       .  S
C357        C358   1.409   1_455  A
C358        N359   1.433       .  S
N359        H363   1.045       .  S
N359        H364   1.045       .  S
N362        H365   1.046       .  S
N362        H366   1.045       .  S
C367        C368   1.407       .  A
C367        C372   1.401       .  A
C367        H374   1.084       .  S
C368        C369   1.412       .  A
C369        C370   1.411       .  A
C369        N376   1.436       .  S
C370        C371   1.409       .  A
C370        H375   1.083       .  S
C371        C372   1.411       .  A
C372        N373   1.434       .  S
N373        H377   1.045       .  S
N373        H378   1.046       .  S
N376        H379   1.046       .  S
N376        H380   1.046       .  S
C381        C382   1.409       .  A
C381        C386   1.415       .  A
C381        H388   1.083       .  S
C382        C383   1.415       .  A
C383        C384   1.409       .  A
C383        N390   1.432       .  S
C384        C385   1.409       .  A
C384        H389   1.083   1_554  S
C385        C386   1.420       .  A
C386        N387   1.438       .  S
N387        H391   1.045       .  S
N387        H392   1.046       .  S
N390        H393   1.045       .  S
N390        H394   1.046       .  S
C395        C396   1.404       .  A
C395        C400   1.396       .  A
C395        H402   1.084       .  S
C396        C397   1.408       .  A
C397        C398   1.398       .  A
C397        N404   1.433       .  S
C398        C399   1.404       .  A
C398        H403   1.084       .  S
C399        C400   1.410       .  A
C400        N401   1.433       .  S
N401        H405   1.045       .  S
N401        H406   1.045       .  S
N404        H407   1.045       .  S
N404        H408   1.046       .  S
C409        C410   1.398       .  A
C409        C414   1.407       .  A
C409        H416   1.084       .  S
C410        C411   1.410       .  A
C411        C412   1.397       .  A
C411        N418   1.433       .  S
C412        C413   1.400       .  A
C412        H417   1.084       .  S
C413        C414   1.422       .  A
C414        N415   1.438       .  S
N415        H419   1.046       .  S
N415        H420   1.045       .  S
N418        H421   1.046       .  S
N418        H422   1.045       .  S
C423        C424   1.405       .  A
C423        C428   1.407       .  A
C423        H430   1.083       .  S
C424        C425   1.421       .  A
C425        C426   1.413       .  A
C425        N432   1.438       .  S
C426        C427   1.408       .  A
C426        H431   1.083       .  S
C427        C428   1.418       .  A
C428        N429   1.433       .  S
N429        H433   1.046       .  S
N429        H434   1.046       .  S
N432        H435   1.046       .  S
N432        H436   1.045       .  S
C437        C438   1.402       .  A
C437        C442   1.399       .  A
C437        H444   1.084       .  S
C438        C439   1.414       .  A
C439        C440   1.400       .  A
C439        N446   1.439       .  S
C440        C441   1.404       .  A
C440        H445   1.084       .  S
C441        C442   1.413       .  A
C442        N443   1.438       .  S
N443        H447   1.046       .  S
N443        H448   1.045       .  S
N446        H449   1.045       .  S
N446        H450   1.046       .  S
C451        C452   1.400       .  A
C451        C456   1.407       .  A
C451        H458   1.084       .  S
C452        C453   1.423       .  A
C453        C454   1.400       .  A
C453        N460   1.435       .  S
C454        C455   1.398       .  A
C454        H459   1.084       .  S
C455        C456   1.416       .  A
C456        N457   1.437       .  S
N457        H461   1.046       .  S
N457        H462   1.045       .  S
N460        H463   1.045       .  S
N460        H464   1.043       .  S
C465        C466   1.410       .  A
C465        C470   1.408       .  A
C465        H472   1.083       .  S
C466        C467   1.409       .  A
C467        C468   1.397       .  A
C467        N474   1.433       .  S
C468        C469   1.405       .  A
C468        H473   1.085       .  S
C469        C470   1.409       .  A
C470        N471   1.437       .  S
N471        H475   1.046       .  S
N471        H476   1.045       .  S
N474        H477   1.046       .  S
N474        H478   1.045       .  S
C479        C480   1.398   1_455  A
C479        C484   1.400       .  A
C479        H486   1.084       .  S
C480        C481   1.415       .  A
C481        C482   1.406   1_655  A
C481        N488   1.437       .  S
C482        C483   1.400       .  A
C482        H487   1.084       .  S
C483        C484   1.423       .  A
C484        N485   1.438       .  S
N485        H489   1.046       .  S
N485        H490   1.045       .  S
N488        H491   1.046       .  S
N488        H492   1.045       .  S
C493        C494   1.407       .  A
C493        C498   1.401       .  A
C493        H500   1.084       .  S
C494        C495   1.417       .  A
C495        C496   1.412       .  A
C495        N502   1.438       .  S
C496        C497   1.408       .  A
C496        H501   1.083       .  S
C497        C498   1.420       .  A
C498        N499   1.433       .  S
N499        H503   1.046       .  S
N499        H504   1.045       .  S
N502        H505   1.046   1_655  S
N502        H506   1.045   1_655  S
C507        C508   1.406       .  A
C507        C512   1.406       .  A
C507        H514   1.084       .  S
C508        C509   1.409       .  A
C509        C510   1.398       .  A
C509        N516   1.433       .  S
C510        C511   1.406       .  A
C510        H515   1.084       .  S
C511        C512   1.415       .  A
C512        N513   1.438       .  S
N513        H517   1.046       .  S
N513        H518   1.044       .  S
N516        H519   1.045       .  S
N516        H520   1.046       .  S
C521        C522   1.404       .  A
C521        C526   1.397       .  A
C521        H528   1.084       .  S
C522        C523   1.409       .  A
C523        C524   1.406       .  A
C523        N530   1.439       .  S
C524        C525   1.410       .  A
C524        H529   1.084       .  S
C525        C526   1.406       .  A
C526        N527   1.432       .  S
N527        H531   1.046       .  S
N527        H532   1.045       .  S
N530        H533   1.046       .  S
N530        H534   1.046       .  S
C535        C536   1.409       .  A
C535        C540   1.416       .  A
C535        H542   1.083       .  S
C536        C537   1.419       .  A
C537        C538   1.408       .  A
C537        N544   1.433       .  S
C538        C539   1.406       .  A
C538        H543   1.084       .  S
C539        C540   1.419       .  A
C540        N541   1.437       .  S
N541        H545   1.045       .  S
N541        H546   1.046       .  S
N544        H547   1.046       .  S
N544        H548   1.046       .  S
C549        C550   1.408       .  A
C549        C554   1.410       .  A
C549        H556   1.083       .  S
C550        C551   1.420       .  A
C551        C552   1.412       .  A
C551        N558   1.438       .  S
C552        C553   1.408       .  A
C552        H557   1.083       .  S
C553        C554   1.416       .  A
C554        N555   1.432       .  S
N555        H559   1.046       .  S
N555        H560   1.046       .  S
N558        H561   1.046       .  S
N558        H562   1.045       .  S
C563        C564   1.406       .  A
C563        C568   1.400       .  A
C563        H570   1.084       .  S
C564        C565   1.409       .  A
C565        C566   1.408       .  A
C565        N572   1.438       .  S
C566        C567   1.410       .  A
C566        H571   1.084       .  S
C567        C568   1.407       .  A
C568        N569   1.433       .  S
N569        H573   1.046       .  S
N569        H574   1.046       .  S
N572        H575   1.046       .  S
N572        H576   1.046       .  S
C577        C578   1.408       .  A
C577        C582   1.413       .  A
C577        H584   1.083       .  S
C578        C579   1.426       .  A
C579        C580   1.401       .  A
C579        N586   1.433   1_556  S
C580        C581   1.404       .  A
C580        H585   1.084       .  S
C581        C582   1.420       .  A
C582        N583   1.438       .  S
N583        H587   1.045       .  S
N583        H588   1.046       .  S
N586        H589   1.045       .  S
N586        H590   1.045       .  S
C591        C592   1.411       .  A
C591        C596   1.409       .  A
C591        H598   1.084       .  S
C592        C593   1.416       .  A
C593        C594   1.397       .  A
C593        N600   1.433       .  S
C594        C595   1.405       .  A
C594        H599   1.084       .  S
C595        C596   1.408       .  A
C596        N597   1.438       .  S
N597        H601   1.045       .  S
N597        H602   1.045       .  S
N600        H603   1.046       .  S
N600        H604   1.044       .  S
C605        C606   1.403       .  A
C605        C610   1.396       .  A
C605        H612   1.084       .  S
C606        C607   1.412       .  A
C607        C608   1.394       .  A
C607        N614   1.434       .  S
C608        C609   1.403       .  A
C608        H613   1.084       .  S
C609        C610   1.411       .  A
C610        N611   1.433       .  S
N611        H615   1.046       .  S
N611        H616   1.046       .  S
N614        H617   1.046       .  S
N614        H618   1.046       .  S
C619        C620   1.399       .  A
C619        C624   1.399       .  A
C619        H626   1.084       .  S
C620        C621   1.417   1_455  A
C621        C622   1.406       .  A
C621        N628   1.438       .  S
C622        C623   1.401       .  A
C622        H627   1.084       .  S
C623        C624   1.423   1_655  A
C624        N625   1.434       .  S
N625        H629   1.043       .  S
N625        H630   1.045       .  S
N628        H631   1.045       .  S
N628        H632   1.046       .  S
C633        C634   1.410       .  A
C633        C638   1.400   1_545  A
C633        H640   1.084       .  S
C634        C635   1.410   1_545  A
C635        C636   1.403       .  A
C635        N642   1.438       .  S
C636        C637   1.408       .  A
C636        H641   1.084       .  S
C637        C638   1.412       .  A
C638        N639   1.432   1_565  S
N639        H643   1.044   1_545  S
N639        H644   1.047       .  S
N642        H645   1.046       .  S
N642        H646   1.045       .  S
C647        C648   1.409       .  A
C647        C652   1.409       .  A
C647        H654   1.083       .  S
C648        C649   1.409       .  A
C649        C650   1.400       .  A
C649        N656   1.433       .  S
C650        C651   1.407       .  A
C650        H655   1.084       .  S
C651        C652   1.409       .  A
C652        N653   1.437       .  S
N653        H657   1.045       .  S
N653        H658   1.046   1_565  S
N656        H659   1.046       .  S
N656        H660   1.045       .  S
C661        C662   1.409       .  A
C661        C666   1.415   1_565  A
C661        H668   1.083       .  S
C662        C663   1.417       .  A
C663        C664   1.406       .  A
C663        N670   1.432       .  S
C664        C665   1.407       .  A
C664        H669   1.084       .  S
C665        C666   1.421   1_565  A
C666        N667   1.438       .  S
N667        H671   1.046       .  S
N667        H672   1.045       .  S
N670        H673   1.046       .  S
N670        H674   1.046       .  S
C675        C676   1.409   1_455  A
C675        C680   1.401       .  A
C675        H682   1.084       .  S
C676        C677   1.407       .  A
C677        C678   1.407       .  A
C677        N684   1.437       .  S
C678        C679   1.411   1_655  A
C678        H683   1.084       .  S
C679        C680   1.405       .  A
C680        N681   1.432       .  S
N681        H685   1.046       .  S
N681        H686   1.046       .  S
N684        H687   1.046       .  S
N684        H688   1.045       .  S
C689        C690   1.407       .  A
C689        C694   1.407       .  A
C689        H696   1.083       .  S
C690        C691   1.418       .  A
C691        C692   1.414       .  A
C691        N698   1.438       .  S
C692        C693   1.410       .  A
C692        H697   1.083       .  S
C693        C694   1.417       .  A
C694        N695   1.432   1_554  S
N695        H699   1.046   1_556  S
N695        H700   1.046       .  S
N698        H701   1.046       .  S
N698        H702   1.045       .  S
C703        C704   1.403       .  A
C703        C708   1.402       .  A
C703        H710   1.084       .  S
C704        C705   1.416       .  A
C705        C706   1.401       .  A
C705        N712   1.433       .  S
C706        C707   1.399       .  A
C706        H711   1.084       .  S
C707        C708   1.414       .  A
C708        N709   1.439       .  S
N709        H713   1.046       .  S
N709        H714   1.045       .  S
N712        H715   1.046       .  S
N712        H716   1.046       .  S
C717        C718   1.407       .  A
C717        C722   1.411       .  A
C717        H724   1.083       .  S
C718        C719   1.417       .  A
C719        C720   1.409       .  A
C719        N726   1.433       .  S
C720        C721   1.408       .  A
C720        H725   1.083   1_545  S
C721        C722   1.418       .  A
C722        N723   1.432       .  S
N723        H727   1.046   1_655  S
N723        H728   1.045       .  S
N726        H729   1.045   1_545  S
N726        H730   1.046       .  S
C731        C732   1.405       .  A
C731        C736   1.395   1_556  A
C731        H738   1.084       .  S
C732        C733   1.412   1_445  A
C733        C734   1.403   1_556  A
C733        N740   1.439       .  S
C734        C735   1.408   1_665  A
C734        H739   1.084       .  S
C735        C736   1.409       .  A
C736        N737   1.433       .  S
N737        H741   1.046       .  S
N737        H742   1.046       .  S
N740        H743   1.045       .  S
N740        H744   1.046       .  S
C745        C746   1.409       .  A
C745        C750   1.403       .  A
C745        H752   1.084       .  S
C746        C747   1.409       .  A
C747        C748   1.406       .  A
C747        N754   1.437       .  S
C748        C749   1.409       .  A
C748        H753   1.084       .  S
C749        C750   1.406       .  A
C750        N751   1.432       .  S
N751        H755   1.045       .  S
N751        H756   1.046       .  S
N754        H757   1.046       .  S
N754        H758   1.045       .  S
C759        C760   1.410       .  A
C759        C764   1.404   1_545  A
C759        H766   1.084       .  S
C760        C761   1.404   1_545  A
C761        C762   1.398       .  A
C761        N768   1.432       .  S
C762        C763   1.405       .  A
C762        H767   1.084       .  S
C763        C764   1.407       .  A
C764        N765   1.438   1_565  S
N765        H769   1.045       .  S
N765        H770   1.046       .  S
N768        H771   1.047       .  S
N768        H772   1.044       .  S
C773        C774   1.410       .  A
C773        C778   1.412       .  A
C773        H780   1.083       .  S
C774        C775   1.418       .  A
C775        C776   1.408       .  A
C775        N782   1.438       .  S
C776        C777   1.407       .  A
C776        H781   1.083       .  S
C777        C778   1.417       .  A
C778        N779   1.438       .  S
N779        H783   1.046       .  S
N779        H784   1.046       .  S
N782        H785   1.045       .  S
N782        H786   1.046       .  S
C787        C788   1.406       .  A
C787        C792   1.400       .  A
C787        H794   1.084       .  S
C788        C789   1.412       .  A
C789        C790   1.401       .  A
C789        N796   1.432       .  S
C790        C791   1.409       .  A
C790        H795   1.084       .  S
C791        C792   1.406       .  A
C792        N793   1.433       .  S
N793        H797   1.046       .  S
N793        H798   1.046       .  S
N796        H799   1.046       .  S
N796        H800   1.044       .  S
C801        C802   1.408   1_545  A
C801        C806   1.411   1_545  A
C801        H808   1.083       .  S
C802        C803   1.418       .  A
C803        C804   1.410       .  A
C803        N810   1.432       .  S
C804        C805   1.407       .  A
C804        H809   1.083       .  S
C805        C806   1.419       .  A
C806        N807   1.433   1_565  S
N807        H811   1.046       .  S
N807        H812   1.045       .  S
N810        H813   1.046       .  S
N810        H814   1.046       .  S
C815        C816   1.399       .  A
C815        C820   1.402       .  A
C815        H822   1.084       .  S
C816        C817   1.417       .  A
C817        C818   1.405       .  A
C817        N824   1.438       .  S
C818        C819   1.399       .  A
C818        H823   1.084       .  S
C819        C820   1.421       .  A
C820        N821   1.437       .  S
N821        H825   1.045       .  S
N821        H826   1.045       .  S
N824        H827   1.045       .  S
N824        H828   1.046       .  S
C829        C830   1.410       .  A
C829        C834   1.417       .  A
C829        H836   1.083       .  S
C830        C831   1.424       .  A
C831        C832   1.409       .  A
C831        N838   1.439       .  S
C832        C833   1.404       .  A
C832        H837   1.083       .  S
C833        C834   1.416       .  A
C834        N835   1.437       .  S
N835        H839   1.045       .  S
N835        H840   1.046       .  S
N838        H841   1.046       .  S
N838        H842   1.045       .  S
C843        C844   1.408   1_565  A
C843        C848   1.404   1_565  A
C843        H850   1.084       .  S
C844        C845   1.409       .  A
C845        C846   1.400       .  A
C845        N852   1.433       .  S
C846        C847   1.407       .  A
C846        H851   1.084       .  S
C847        C848   1.406       .  A
C848        N849   1.432       .  S
N849        H853   1.045       .  S
N849        H854   1.046   1_545  S
N852        H855   1.046       .  S
N852        H856   1.046       .  S
C857        C858   1.406   1_565  A
C857        C862   1.397       .  A
C857        H864   1.084       .  S
C858        C859   1.410       .  A
C859        C860   1.397       .  A
C859        N866   1.433       .  S
C860        C861   1.406       .  A
C860        H865   1.084       .  S
C861        C862   1.411   1_545  A
C862        N863   1.433       .  S
N863        H867   1.046       .  S
N863        H868   1.046       .  S
N866        H869   1.046       .  S
N866        H870   1.046       .  S
C871        C872   1.399       .  A
C871        C876   1.402       .  A
C871        H878   1.084       .  S
C872        C873   1.416       .  A
C873        C874   1.407       .  A
C873        N880   1.438       .  S
C874        C875   1.400       .  A
C874        H879   1.084       .  S
C875        C876   1.422       .  A
C876        N877   1.437       .  S
N877        H881   1.046       .  S
N877        H882   1.045       .  S
N880        H883   1.045       .  S
N880        H884   1.046       .  S
C885        C886   1.410       .  A
C885        C890   1.406       .  A
C885        H892   1.084       .  S
C886        C887   1.409       .  A
C887        C888   1.402       .  A
C887        N894   1.438       .  S
C888        C889   1.405       .  A
C888        H893   1.084       .  S
C889        C890   1.407       .  A
C890        N891   1.438       .  S
N891        H895   1.046       .  S
N891        H896   1.045       .  S
N894        H897   1.046       .  S
N894        H898   1.046       .  S
C899        C900   1.408       .  A
C899        C904   1.413       .  A
C899        H906   1.083       .  S
C900        C901   1.417       .  A
C901        C902   1.401       .  A
C901        N908   1.433       .  S
C902        C903   1.403       .  A
C902        H907   1.084   1_545  S
C903        C904   1.417       .  A
C904        N905   1.438       .  S
N905        H909   1.046       .  S
N905        H910   1.045       .  S
N908        H911   1.046       .  S
N908        H912   1.046       .  S
C913        C914   1.403       .  A
C913        C918   1.399       .  A
C913        H920   1.084       .  S
C914        C915   1.417   1_545  A
C915        C916   1.405   1_565  A
C915        N922   1.433       .  S
C916        C917   1.400       .  A
C916        H921   1.084       .  S
C917        C918   1.412       .  A
C918        N919   1.434       .  S
N919        H923   1.046       .  S
N919        H924   1.046       .  S
N922        H925   1.046       .  S
N922        H926   1.045       .  S
C927        C928   1.407       .  A
C927        C932   1.400       .  A
C927        H934   1.084       .  S
C928        C929   1.417       .  A
C929        C930   1.413       .  A
C929        N936   1.437       .  S
C930        C931   1.411       .  A
C930        H935   1.083   1_556  S
C931        C932   1.422       .  A
C932        N933   1.433       .  S
N933        H937   1.045       .  S
N933        H938   1.045       .  S
N936        H939   1.046       .  S
N936        H940   1.046       .  S
C941        C942   1.410       .  A
C941        C946   1.402   1_655  A
C941        H948   1.084       .  S
C942        C943   1.408   1_655  A
C943        C944   1.406       .  A
C943        N950   1.437       .  S
C944        C945   1.410       .  A
C944        H949   1.084       .  S
C945        C946   1.405       .  A
C946        N947   1.432       .  S
N947        H951   1.045       .  S
N947        H952   1.046   1_455  S
N950        H953   1.046   1_455  S
N950        H954   1.045       .  S
C955        C956   1.410       .  A
C955        C960   1.414       .  A
C955        H962   1.083       .  S
C956        C957   1.413       .  A
C957        C958   1.408       .  A
C957        N964   1.432       .  S
C958        C959   1.408       .  A
C958        H963   1.083       .  S
C959        C960   1.420       .  A
C960        N961   1.438       .  S
N961        H965   1.045       .  S
N961        H966   1.046       .  S
N964        H967   1.046       .  S
N964        H968   1.045       .  S
C969        C970   1.406       .  A
C969        C974   1.404       .  A
C969        H976   1.084       .  S
C970        C971   1.410       .  A
C971        C972   1.408       .  A
C971        N978   1.438       .  S
C972        C973   1.409       .  A
C972        H977   1.084       .  S
C973        C974   1.410       .  A
C974        N975   1.438       .  S
N975        H979   1.046       .  S
N975        H980   1.046       .  S
N978        H981   1.046       .  S
N978        H982   1.045       .  S
C983        C984   1.402       .  A
C983        C988   1.395       .  A
C983        H990   1.084       .  S
C984        C985   1.408       .  A
C985        C986   1.397       .  A
C985        N992   1.433       .  S
C986        C987   1.402       .  A
C986        H991   1.084       .  S
C987        C988   1.417       .  A
C988        N989   1.434       .  S
N989        H993   1.044       .  S
N989        H994   1.046       .  S
N992        H995   1.046       .  S
N992        H996   1.044       .  S
C997        C998   1.405       .  A
C997       C1002   1.399       .  A
C997       H1004   1.084       .  S
C998        C999   1.409       .  A
C999       C1000   1.408       .  A
C999       N1006   1.438       .  S
C1000      C1001   1.411       .  A
C1000      H1005   1.084       .  S
C1001      C1002   1.406       .  A
C1002      N1003   1.432       .  S
N1003      H1007   1.045       .  S
N1003      H1008   1.046       .  S
N1006      H1009   1.045       .  S
N1006      H1010   1.046       .  S
C1011      C1012   1.410       .  A
C1011      C1016   1.413       .  A
C1011      H1018   1.083       .  S
C1012      C1013   1.423       .  A
C1013      C1014   1.402       .  A
C1013      N1020   1.432       .  S
C1014      C1015   1.406       .  A
C1014      H1019   1.084       .  S
C1015      C1016   1.418       .  A
C1016      N1017   1.438       .  S
N1017      H1021   1.045       .  S
N1017      H1022   1.046       .  S
N1020      H1023   1.046       .  S
N1020      H1024   1.045       .  S
