geometry optimzed in LAMMPS
_audit_creation_date              2020-11-30 
_audit_creation_method            'lammps2cif' 
_symmetry_space_group_name_H-M    'P1' 
_symmetry_Int_Tables_number       1 
_symmetry_cell_setting            triclinic 
loop_ 
_symmetry_equiv_pos_as_xyz 
  x,y,z 
_cell_length_a                    49.30371455070193 
_cell_length_b                    49.54960629496073 
_cell_length_c                    39.95065044768101 
_cell_angle_alpha                 90.44782449839376 
_cell_angle_beta                  89.99230533425397 
_cell_angle_gamma                 90.58874432656248 
loop_ 
_atom_site_label 
_atom_site_type_symbol 
_atom_site_fract_x 
_atom_site_fract_y 
_atom_site_fract_z 
_atom_site_charge 
Zr1        Zr  0.60039142  0.60334990  0.36180247     2.17510
O2          O  0.58203434  0.58886601  0.30790493    -0.51760
O3          O  0.60462240  0.65156048  0.35090060    -0.74970
O4          O  0.55372039  0.61826424  0.35772424    -0.81750
O5          O  0.66916564  0.57585990  0.33556299    -0.83500
O6          O  0.53608715  0.62032061  0.41028997    -0.79120
O7          O  0.63597952  0.60352915  0.31709282    -0.90760
O8          O  0.63200011  0.66883600  0.39139941    -0.76720
O9          O  0.59759903  0.62976647  0.41196501    -0.86210
O10         O  0.64527374  0.60822271  0.38242024    -0.85900
O11         O  0.57205962  0.57801735  0.40068189    -0.72660
O12         O  0.61320882  0.55730665  0.37259686    -0.84790
Zr13       Zr  0.62963091  0.56581312  0.48142166     2.26420
Zr14       Zr  0.56966888  0.60518568  0.45071429     2.06270
Zr15       Zr  0.65844264  0.56306382  0.39243648     2.10050
Zr16       Zr  0.64311258  0.63442536  0.43123468     1.78760
O17         O  0.66451660  0.52235438  0.35891953    -0.93600
O18         O  0.62822190  0.67275429  0.46489778    -0.41400
O19         O  0.65856547  0.58970870  0.44277866    -0.78040
O20         O  0.61573754  0.61077665  0.46911578    -0.96720
O21         O  0.58369571  0.56018678  0.46399753    -0.90030
O22         O  0.63135797  0.53904930  0.43186752    -0.92870
C23         C  0.61747495  0.67125472  0.36503812     1.00880
C24         C  0.65939596  0.59206831  0.31385833     1.13810
C25         C  0.53410458  0.62247259  0.37830793     1.04590
O26         O  0.54661625  0.64636269  0.46741930    -0.95020
O27         O  0.57558847  0.61655925  0.51025876    -0.90770
O28         O  0.60611237  0.58614868  0.52949874    -0.83910
C29         C  0.59108267  0.60706306  0.53322473     1.11230
O30         O  0.55312370  0.51971676  0.37196212    -0.97000
Zr31       Zr  0.58634941  0.53321523  0.41428179     1.88940
O32         O  0.61934824  0.51971695  0.49838842    -0.73650
O33         O  0.53100474  0.57920105  0.47115246    -0.52910
O34         O  0.54246657  0.52291951  0.43943819    -0.97590
O35         O  0.60091523  0.49436270  0.38134230    -0.54810
O36         O  0.59838108  0.49774036  0.45530865    -0.74160
C37         C  0.61064168  0.49804222  0.48390874     0.98180
O38         O  0.65768578  0.57126271  0.53146826    -0.62980
O39         O  0.70631940  0.57574372  0.39225941    -0.57790
O40         O  0.67406479  0.54578443  0.48144452    -0.94470
O41         O  0.68473456  0.53519412  0.42773989    -0.92900
O42         O  0.68754951  0.64744983  0.40974922    -0.93250
O43         O  0.67429212  0.64688754  0.47616846    -0.92040
C44         C  0.68892720  0.53436795  0.45923455     1.17020
H45         H  0.65754551  0.61801268  0.36805860     0.32970
H46         H  0.61845114  0.62272107  0.48781110     0.43820
H47         H  0.63897999  0.52149510  0.43559995     0.37340
H48         H  0.55418650  0.57534327  0.39133400     0.33820
H49         H  0.63791716  0.68855364  0.45545288     0.25610
H50         H  0.52100539  0.59200944  0.48561502     0.31550
H51         H  0.54341439  0.50362418  0.44554786     0.37460
H52         H  0.68723134  0.66741802  0.40909715     0.31920
H53         H  0.71457957  0.56422340  0.37473285     0.30800
H54         H  0.68442473  0.52015161  0.35752102     0.32480
H55         H  0.59190245  0.47861046  0.39184196     0.31440
H56         H  0.67347344  0.63149112  0.49180096     0.35440
H57         H  0.65727924  0.59069164  0.53741154     0.28180
H58         H  0.57540194  0.60558343  0.29738558     0.32410
H59         H  0.54668482  0.50150035  0.37846415     0.35260
H60         H  0.70684948  0.59417211  0.38286094     0.27870
H61         H  0.64789333  0.56194156  0.54975826     0.40740
H62         H  0.55750206  0.66106689  0.45725715     0.30800
H63         H  0.60903898  0.67532017  0.45844344     0.38410
H64         H  0.62035076  0.49230325  0.38687684     0.30260
H65         H  0.51922083  0.57663657  0.45128714     0.30330
H66         H  0.56540886  0.57842830  0.31340340     0.30590
Zr67       Zr  0.89179862  0.60623902  0.57420416     2.17510
O68         O  0.91153583  0.59330853  0.62752390    -0.51760
O69         O  0.88884970  0.65449148  0.58454948    -0.74970
O70         O  0.93893801  0.62101190  0.57465878    -0.81750
O71         O  0.83441589  0.57013741  0.60915844    -0.83500
O72         O  0.95497839  0.62002136  0.52114053    -0.79120
O73         O  0.85653250  0.60898336  0.61884487    -0.90760
O74         O  0.86250118  0.67149825  0.54328507    -0.76720
O75         O  0.89339468  0.63076662  0.52290973    -0.86210
O76         O  0.84595536  0.61087417  0.55638516    -0.85900
O77         O  0.91782096  0.57947023  0.53449005    -0.72660
O78         O  0.87714474  0.55997366  0.56619305    -0.84790
Zr79       Zr  0.85610045  0.56403271  0.45911388     2.26420
Zr80       Zr  0.91875329  0.60456034  0.48312829     2.06270
Zr81       Zr  0.83120647  0.56547279  0.54905129     2.10050
Zr82       Zr  0.84729419  0.63533469  0.50650502     1.78760
O83         O  0.80993232  0.53028408  0.58252694    -0.93600
O84         O  0.86232684  0.67094887  0.46880658    -0.41400
O85         O  0.82937394  0.59033435  0.49777538    -0.78040
O86         O  0.87193903  0.60950833  0.46796267    -0.96720
O87         O  0.90271011  0.55915409  0.47340203    -0.90030
O88         O  0.85636511  0.53902693  0.50956263    -0.92870
C89         C  0.87711133  0.67406446  0.56968397     1.00880
C90         C  0.83662347  0.59257935  0.62486844     1.13810
C91         C  0.95802722  0.62374067  0.55294657     1.04590
O92         O  0.94102535  0.64559753  0.46360982    -0.95020
O93         O  0.91028343  0.61291665  0.42311609    -0.90770
O94         O  0.87600879  0.58377819  0.40873019    -0.83910
C95         C  0.89253281  0.60337783  0.40225863     1.11230
O96         O  0.93540273  0.52226456  0.56663244    -0.97000
Zr97       Zr  0.90204765  0.53424787  0.52435347     1.88940
O98         O  0.86532624  0.51729287  0.44399690    -0.73650
O99         O  0.95579763  0.57798549  0.46037938    -0.52910
O100        O  0.94586096  0.52392389  0.49940100    -0.97590
O101        O  0.88696602  0.49632989  0.55842163    -0.54810
O102        O  0.89030073  0.49736387  0.48441413    -0.74160
C103        C  0.87620251  0.49646310  0.45720188     0.98180
O104        O  0.83265759  0.56444718  0.40537002    -0.62980
O105        O  0.78722517  0.58731823  0.55344825    -0.57790
O106        O  0.80937348  0.54806746  0.46506816    -0.94470
O107        O  0.80501981  0.53361352  0.51834106    -0.92900
O108        O  0.80564906  0.65261858  0.53104348    -0.93250
O109        O  0.81366191  0.64592475  0.46406760    -0.92040
C110        C  0.79665694  0.53546129  0.48840637     1.17020
H111        H  0.83414996  0.62103849  0.57090519     0.32970
H112        H  0.86849609  0.62073153  0.44898285     0.43820
H113        H  0.84886548  0.52111270  0.50670274     0.37340
H114        H  0.93597030  0.57694851  0.54281392     0.33820
H115        H  0.85266383  0.68727404  0.47651840     0.25610
H116        H  0.96487951  0.59014722  0.44423018     0.31550
H117        H  0.94514477  0.50427761  0.49471836     0.37460
H118        H  0.80703034  0.67244407  0.52843525     0.31920
H119        H  0.78829781  0.59839922  0.57414145     0.30800
H120        H  0.79138225  0.53687445  0.58707616     0.32480
H121        H  0.87032210  0.48938381  0.54733192     0.31440
H122        H  0.81532859  0.63130773  0.44717060     0.35440
H123        H  0.82654201  0.54560076  0.40141769     0.28180
H124        H  0.91772103  0.61050734  0.63790104     0.32410
H125        H  0.94056422  0.50343537  0.56139284     0.35260
H126        H  0.78679234  0.60057262  0.53506554     0.27870
H127        H  0.81582793  0.57474340  0.40928781     0.40740
H128        H  0.93250238  0.66028601  0.47670498     0.30800
H129        H  0.88151493  0.67438993  0.47494193     0.38410
H130        H  0.88039549  0.50466352  0.57947864     0.30260
H131        H  0.96885170  0.57651862  0.47909402     0.30330
H132        H  0.92842752  0.58375055  0.62157821     0.30590
Zr133      Zr  0.85895168  0.63758526  0.11143827     2.17510
O134        O  0.84400384  0.65387694  0.05719872    -0.51760
O135        O  0.90723340  0.63461610  0.09967705    -0.74970
O136        O  0.87235888  0.68481971  0.10653138    -0.81750
O137        O  0.82961049  0.57021445  0.08495273    -0.83500
O138        O  0.87367157  0.70325677  0.15887711    -0.79120
O139        O  0.86053963  0.60123415  0.06772125    -0.90760
O140        O  0.92631852  0.61195600  0.14275046    -0.76720
O141        O  0.88503612  0.64328313  0.16157497    -0.86210
O142        O  0.86564076  0.59383631  0.13339141    -0.85900
O143        O  0.83215774  0.66495482  0.14962469    -0.72660
O144        O  0.81331049  0.62171986  0.12194634    -0.84790
Zr145      Zr  0.82077603  0.60915457  0.23086632     2.26420
Zr146      Zr  0.85890219  0.67002453  0.19986658     2.06270
Zr147      Zr  0.82091674  0.57777716  0.14368836     2.10050
Zr148      Zr  0.89156224  0.59903419  0.18242788     1.78760
O149        O  0.78232414  0.55868765  0.11336463    -0.93600
O150        O  0.92840440  0.61714983  0.21681070    -0.41400
O151        O  0.84721603  0.58106011  0.19400756    -0.78040
O152        O  0.86602160  0.62513956  0.22043042    -0.96720
O153        O  0.81391453  0.65374356  0.21154308    -0.90030
O154        O  0.79444725  0.60433613  0.18124705    -0.92870
C155        C  0.92766222  0.62441809  0.11478693     1.00880
C156        C  0.84757449  0.57851009  0.06411968     1.13810
C157        C  0.87593253  0.70483150  0.12683994     1.04590
O158        O  0.89952858  0.69473816  0.21716821    -0.95020
O159        O  0.86763094  0.66543543  0.26021913    -0.90770
O160        O  0.83109487  0.64087805  0.27579809    -0.83910
C161        C  0.85370458  0.65270638  0.28246628     1.11230
O162        O  0.77321305  0.67881524  0.11808132    -0.97000
Zr163      Zr  0.78738503  0.64817010  0.16205836     1.88940
O164        O  0.77279417  0.61226561  0.24431477    -0.73650
O165        O  0.83176912  0.70795413  0.21879016    -0.52910
O166        O  0.77401087  0.69185162  0.18466364    -0.97590
O167        O  0.75040493  0.62929855  0.12848454    -0.54810
O168        O  0.75164455  0.63584643  0.20353181    -0.74160
C169        C  0.75136912  0.62190061  0.23077350     0.98180
O170        O  0.82884532  0.59093476  0.28650747    -0.62980
O171        O  0.84322541  0.53411183  0.14384875    -0.57790
O172        O  0.81156273  0.56159302  0.23217012    -0.94470
O173        O  0.79299628  0.55264061  0.18141736    -0.92900
O174        O  0.90740530  0.55568945  0.16139021    -0.93250
O175        O  0.90503098  0.56864287  0.22692252    -0.92040
C176        C  0.79929467  0.54626815  0.21113993     1.17020
H177        H  0.87571278  0.58193123  0.11890315     0.32970
H178        H  0.87686388  0.62345798  0.24035498     0.43820
H179        H  0.77697769  0.59589336  0.18457826     0.37340
H180        H  0.82899451  0.68240671  0.13991606     0.33820
H181        H  0.94494996  0.60841809  0.20802410     0.25610
H182        H  0.84474474  0.71980742  0.23100488     0.31550
H183        H  0.75434506  0.68996687  0.18922319     0.37460
H184        H  0.92742325  0.55750109  0.16095759     0.31920
H185        H  0.82866741  0.52082568  0.13865851     0.30800
H186        H  0.78602512  0.53911033  0.11177794     0.32480
H187        H  0.73362148  0.63479371  0.14019370     0.31440
H188        H  0.89001335  0.56949260  0.24334622     0.35440
H189        H  0.81187105  0.58139306  0.29278004     0.28180
H190        H  0.86082535  0.65990025  0.04582253     0.32410
H191        H  0.75401385  0.68301103  0.12297351     0.35260
H192        H  0.85493868  0.53403958  0.12371864     0.27870
H193        H  0.84239438  0.57652967  0.28326151     0.40740
H194        H  0.91454159  0.68559281  0.20533395     0.30800
H195        H  0.93022960  0.63623890  0.20995822     0.38410
H196        H  0.75135755  0.60956132  0.13189737     0.30260
H197        H  0.82754723  0.71795788  0.19810486     0.30330
H198        H  0.83403388  0.67068647  0.06216243     0.30590
Zr199      Zr  0.85724796  0.34567550  0.32462272     2.17510
O200        O  0.84130684  0.32934078  0.37859076    -0.51760
O201        O  0.90553272  0.34789874  0.33705225    -0.74970
O202        O  0.86880582  0.29852789  0.33001230    -0.81750
O203        O  0.83321511  0.41557644  0.34938137    -0.83500
O204        O  0.87212004  0.27947450  0.27794645    -0.79120
O205        O  0.85900695  0.38139360  0.36901502    -0.90760
O206        O  0.92541795  0.37067157  0.29431638    -0.76720
O207        O  0.88437691  0.34035280  0.27545115    -0.86210
O208        O  0.86452554  0.38951594  0.30293763    -0.85900
O209        O  0.83105439  0.31789512  0.28560672    -0.72660
O210        O  0.81172159  0.36045847  0.31309938    -0.84790
Zr211      Zr  0.82210124  0.37343553  0.20452880     2.26420
Zr212      Zr  0.85912388  0.31290954  0.23654699     2.06270
Zr213      Zr  0.81978683  0.40472367  0.29235518     2.10050
Zr214      Zr  0.89138684  0.38470168  0.25475614     1.78760
O215        O  0.77977579  0.41418509  0.32597126    -0.93600
O216        O  0.92854964  0.36850373  0.22002608    -0.41400
O217        O  0.84720405  0.40186247  0.24283253    -0.78040
O218        O  0.86689346  0.35781081  0.21598146    -0.96720
O219        O  0.81455879  0.32868614  0.22334782    -0.90030
O220        O  0.79467753  0.37783926  0.25312717    -0.92870
C221        C  0.92633776  0.35784296  0.32202605     1.00880
C222        C  0.84860955  0.40522525  0.37172232     1.13810
C223        C  0.87265092  0.27842512  0.31011068     1.04590
O224        O  0.90163093  0.29128172  0.22170473    -0.95020
O225        O  0.86776216  0.31685450  0.17611980    -0.90770
O226        O  0.83202892  0.34156644  0.15976420    -0.83910
C227        C  0.85426602  0.32930676  0.15347896     1.11230
O228        O  0.77198023  0.30250919  0.31493210    -0.97000
Zr229      Zr  0.78666430  0.33383908  0.27161276     1.88940
O230        O  0.77517979  0.36759283  0.18748345    -0.73650
O231        O  0.83384435  0.27354463  0.21654826    -0.52910
O232        O  0.77393119  0.29022511  0.24747160    -0.97590
O233        O  0.74819610  0.35101364  0.30331476    -0.54810
O234        O  0.75209151  0.34605980  0.22876954    -0.74160
C235        C  0.75303469  0.35880950  0.20062255     0.98180
O236        O  0.83618764  0.39574426  0.15280050    -0.62980
O237        O  0.83505757  0.45162024  0.29079596    -0.57790
O238        O  0.80747219  0.41943934  0.20349181    -0.94470
O239        O  0.79192951  0.43012736  0.25548805    -0.92900
O240        O  0.90845813  0.42724273  0.27786159    -0.93250
O241        O  0.90434946  0.41676346  0.21157886    -0.92040
C242        C  0.79630102  0.43521714  0.22475480     1.17020
H243        H  0.87477945  0.40142777  0.31745439     0.32970
H244        H  0.87800905  0.35919576  0.19621054     0.43820
H245        H  0.77736497  0.38591326  0.24870032     0.37340
H246        H  0.82732316  0.30044710  0.29519189     0.33820
H247        H  0.94499164  0.37731830  0.22947561     0.25610
H248        H  0.84794063  0.26107335  0.20825011     0.31550
H249        H  0.75432893  0.29167979  0.24250011     0.37460
H250        H  0.92844091  0.42542540  0.27769401     0.31920
H251        H  0.82447118  0.46083679  0.30848655     0.30800
H252        H  0.77908575  0.43413272  0.32723914     0.32480
H253        H  0.73200862  0.34292267  0.29234591     0.31440
H254        H  0.89163845  0.41296712  0.19289991     0.35440
H255        H  0.84126000  0.41448037  0.15911771     0.28180
H256        H  0.85742621  0.32132098  0.38926620     0.32410
H257        H  0.75324469  0.29701272  0.30883481     0.35260
H258        H  0.85383581  0.45133502  0.29955710     0.27870
H259        H  0.85378692  0.38759724  0.14677015     0.40740
H260        H  0.91521917  0.29948292  0.23704974     0.30800
H261        H  0.93034726  0.34924422  0.22596328     0.38410
H262        H  0.74741097  0.37040627  0.29765963     0.30260
H263        H  0.82681401  0.26492237  0.23711912     0.30330
H264        H  0.82928758  0.31378138  0.37316175     0.30590
Zr265      Zr  0.89213796  0.37872674  0.86223673     2.17510
O266        O  0.91109922  0.39273220  0.80872280    -0.51760
O267        O  0.88721645  0.33054997  0.84934236    -0.74970
O268        O  0.93970489  0.36586429  0.85931960    -0.81750
O269        O  0.82390642  0.40724140  0.83538384    -0.83500
O270        O  0.95644887  0.36229921  0.91247975    -0.79120
O271        O  0.85687542  0.37899361  0.81705219    -0.90760
O272        O  0.85833266  0.31401395  0.88844760    -0.76720
O273        O  0.89452840  0.35220615  0.91193995    -0.86210
O274        O  0.84703055  0.37448711  0.88232635    -0.85900
O275        O  0.91963689  0.40407791  0.90247730    -0.72660
O276        O  0.87881834  0.42486244  0.87308214    -0.84790
Zr277      Zr  0.86248651  0.41745001  0.98155900     2.26420
Zr278      Zr  0.92167683  0.37677556  0.95219800     2.06270
Zr279      Zr  0.83340546  0.41972575  0.89282994     2.10050
Zr280      Zr  0.84885577  0.34801483  0.93045226     1.78760
O281        O  0.82485815  0.46039948  0.86092220    -0.93600
O282        O  0.86479897  0.30952216  0.96226963    -0.41400
O283        O  0.83383427  0.39293650  0.94253185    -0.78040
O284        O  0.87535970  0.37172431  0.96999331    -0.96720
O285        O  0.90829775  0.42243718  0.96435245    -0.90030
O286        O  0.86046088  0.44422211  0.93243876    -0.92870
C287        C  0.87296972  0.31132550  0.86212354     1.00880
C288        C  0.83371843  0.39090204  0.81357602     1.13810
C289        C  0.95890135  0.36159106  0.88041635     1.04590
O290        O  0.94453433  0.33542621  0.96783136    -0.95020
O291        O  0.91420552  0.36485349  0.01152269    -0.90770
O292        O  0.88484368  0.39688277  0.02952191    -0.83910
C293        C  0.89847615  0.37522678  0.03390664     1.11230
O294        O  0.93969942  0.46125143  0.87327289    -0.97000
Zr295      Zr  0.90554752  0.44932388  0.91493477     1.88940
O296        O  0.87124842  0.46429340  0.99668135    -0.73650
O297        O  0.95944445  0.40272348  0.97553120    -0.52910
O298        O  0.94864183  0.46137217  0.94116648    -0.97590
O299        O  0.89116737  0.48669362  0.88004165    -0.54810
O300        O  0.89272381  0.48607754  0.95452418    -0.74160
C301        C  0.87973472  0.48596917  0.98260655     0.98180
O302        O  0.83831733  0.42465364  0.03423041    -0.62980
O303        O  0.78598674  0.40539417  0.89088891    -0.57790
O304        O  0.81458996  0.42432530  0.98003965    -0.94470
O305        O  0.80830488  0.44673866  0.93184381    -0.92900
O306        O  0.80393878  0.33543082  0.90985932    -0.93250
O307        O  0.81756589  0.33479158  0.97470703    -0.92040
C308        C  0.79996481  0.43750964  0.95961796     1.17020
H309        H  0.83484427  0.36476143  0.86759582     0.32970
H310        H  0.87154207  0.35994080  0.98841842     0.43820
H311        H  0.85268107  0.46176027  0.93605304     0.37340
H312        H  0.93765026  0.40698782  0.89376034     0.33820
H313        H  0.85456764  0.29383808  0.95308380     0.25610
H314        H  0.97008222  0.38936824  0.98816737     0.31550
H315        H  0.94773389  0.48110896  0.94500326     0.37460
H316        H  0.80419817  0.31548529  0.90814828     0.31920
H317        H  0.77764225  0.41666988  0.87340823     0.30800
H318        H  0.80483974  0.46170673  0.86016673     0.32480
H319        H  0.89954460  0.50297860  0.89038490     0.31440
H320        H  0.81872177  0.34968345  0.99133140     0.35440
H321        H  0.83335873  0.40653825  0.04263863     0.28180
H322        H  0.91870437  0.37610285  0.79871157     0.32410
H323        H  0.94536605  0.48001968  0.87865604     0.35260
H324        H  0.78625467  0.38698956  0.88107386     0.27870
H325        H  0.85180403  0.43193437  0.05038603     0.40740
H326        H  0.93458945  0.32093947  0.95563948     0.30800
H327        H  0.88365181  0.30678647  0.95452060     0.38410
H328        H  0.87154205  0.48851274  0.88466758     0.30260
H329        H  0.97093129  0.40717413  0.95596341     0.30330
H330        H  0.92711170  0.40404214  0.81456906     0.30590
Zr331      Zr  0.60138898  0.37685691  0.06898920     2.17510
O332        O  0.58460178  0.39314847  0.12273284    -0.51760
O333        O  0.60591060  0.32897890  0.08179619    -0.74970
O334        O  0.55448892  0.36225500  0.07515726    -0.81750
O335        O  0.67283245  0.39914266  0.08948046    -0.83500
O336        O  0.53503872  0.36051723  0.02348654    -0.79120
O337        O  0.63765380  0.37634426  0.11292980    -0.90760
O338        O  0.62990625  0.31126193  0.03880392    -0.76720
O339        O  0.59449471  0.35064023  0.01897089    -0.86210
O340        O  0.64503239  0.37012558  0.04582717    -0.85900
O341        O  0.57317965  0.40291785  0.03120001    -0.72660
O342        O  0.61697083  0.42238648  0.05770974    -0.84790
Zr343      Zr  0.62756415  0.41386463  0.94725314     2.26420
Zr344      Zr  0.56684873  0.37598762  0.98108083     2.06270
Zr345      Zr  0.66070268  0.41484737  0.03438161     2.10050
Zr346      Zr  0.63850476  0.34421899  0.99654638     1.78760
O347        O  0.67069897  0.46175609  0.04869781    -0.93600
O348        O  0.61790051  0.30587219  0.96718470    -0.41400
O349        O  0.65511104  0.38817501  0.98504289    -0.78040
O350        O  0.61149867  0.36893178  0.95893572    -0.96720
O351        O  0.58315625  0.42053556  0.96865614    -0.90030
O352        O  0.63385499  0.44050559  0.99717493    -0.92870
C353        C  0.61782940  0.30926470  0.06694343     1.00880
C354        C  0.66234213  0.38563748  0.11356547     1.13810
C355        C  0.53417205  0.35815327  0.05552167     1.04590
O356        O  0.54266030  0.33504581  0.96411414    -0.95020
O357        O  0.56972463  0.36761391  0.91995621    -0.90770
O358        O  0.59218532  0.40534535  0.90574579    -0.83910
C359        C  0.58258723  0.38192126  0.89818994     1.11230
O360        O  0.56019604  0.46102169  0.06369543    -0.97000
Zr361      Zr  0.58976777  0.44741695  0.01772287     1.88940
O362        O  0.62042571  0.46010835  0.93036699    -0.73650
O363        O  0.52760120  0.40239915  0.96523692    -0.52910
O364        O  0.54515160  0.45905490  0.99632833    -0.97590
O365        O  0.60673512  0.48707535  0.04788603    -0.54810
O366        O  0.60092152  0.48186158  0.97448606    -0.74160
C367        C  0.61219635  0.48164494  0.94521085     0.98180
O368        O  0.65661079  0.39241326  0.90537107    -0.62980
O369        O  0.70962863  0.42016007  0.04128381    -0.57790
O370        O  0.67013893  0.43706281  0.94149434    -0.94470
O371        O  0.67901709  0.40720945  0.97976101    -0.92900
O372        O  0.68414230  0.33090205  0.01235777    -0.93250
O373        O  0.66739949  0.32960267  0.95044406    -0.92040
C374        C  0.68696503  0.42644713  0.96119956     1.17020
H375        H  0.65700165  0.35953725  0.05942985     0.32970
H376        H  0.61230232  0.35775215  0.93913067     0.43820
H377        H  0.64305524  0.45737962  0.99265632     0.37340
H378        H  0.55579748  0.40598374  0.04158665     0.33820
H379        H  0.62941857  0.29032649  0.97294340     0.25610
H380        H  0.51565019  0.38942435  0.95317130     0.31550
H381        H  0.54652451  0.47849973  0.99098174     0.37460
H382        H  0.68309319  0.31103697  0.01465406     0.31920
H383        H  0.71235501  0.42790671  0.06396703     0.30800
H384        H  0.66646011  0.46316443  0.07287012     0.32480
H385        H  0.59573972  0.50221547  0.03952056     0.31440
H386        H  0.65553281  0.32907767  0.93046221     0.35440
H387        H  0.67545801  0.39217826  0.91373708     0.28180
H388        H  0.57920899  0.37666007  0.13500420     0.32410
H389        H  0.55258490  0.47864180  0.05720935     0.35260
H390        H  0.71649610  0.40149765  0.04277140     0.27870
H391        H  0.65113954  0.37318291  0.90627874     0.40740
H392        H  0.55239268  0.32029912  0.97540397     0.30800
H393        H  0.60063272  0.30242958  0.97912998     0.38410
H394        H  0.62502278  0.49046616  0.03851233     0.30260
H395        H  0.51804598  0.40599858  0.98658722     0.30330
H396        H  0.56733122  0.40225337  0.11756727     0.30590
Zr397      Zr  0.63098095  0.63453907  0.81818704     2.17510
O398        O  0.65025218  0.64883877  0.87166231    -0.51760
O399        O  0.58320044  0.63297810  0.83326750    -0.74970
O400        O  0.62052179  0.68213104  0.82718219    -0.81750
O401        O  0.64620905  0.56162191  0.83292186    -0.83500
O402        O  0.62062424  0.70237313  0.77629936    -0.79120
O403        O  0.62829456  0.59768190  0.86007072    -0.90760
O404        O  0.56085458  0.61653075  0.78767380    -0.76720
O405        O  0.60555789  0.64624838  0.76942342    -0.86210
O406        O  0.61828956  0.59303135  0.79211833    -0.85900
O407        O  0.66040287  0.66131080  0.78247810    -0.72660
O408        O  0.67353837  0.61344782  0.80431417    -0.84790
Zr409      Zr  0.66570850  0.61048175  0.69279689     2.26420
Zr410      Zr  0.63487494  0.67145342  0.73281239     2.06270
Zr411      Zr  0.66011462  0.57265468  0.77638899     2.10050
Zr412      Zr  0.59299164  0.60453813  0.74431036     1.78760
O413        O  0.70509230  0.55375525  0.78403615    -0.93600
O414        O  0.55867748  0.63015864  0.71474328    -0.41400
O415        O  0.63476024  0.58467978  0.72805898    -0.78040
O416        O  0.62222565  0.62872565  0.70802480    -0.96720
O417        O  0.67789706  0.65221567  0.71863600    -0.90030
O418        O  0.69045271  0.59845048  0.74222911    -0.92870
C419        C  0.56145106  0.62603532  0.81761306     1.00880
C420        C  0.63522611  0.57258112  0.85868036     1.13810
C421        C  0.61788860  0.70286040  0.80824275     1.04590
O422        O  0.60212609  0.70531350  0.71639553    -0.95020
O423        O  0.62218148  0.67068579  0.67357432    -0.90770
O424        O  0.65706929  0.64677751  0.65328800    -0.83910
C425        C  0.63428107  0.65856895  0.64937863     1.11230
O426        O  0.71862330  0.66383316  0.81788514    -0.97000
Zr427      Zr  0.70240639  0.64012766  0.76790166     1.88940
O428        O  0.71462035  0.61299924  0.68016016    -0.73650
O429        O  0.66902252  0.70535114  0.71890824    -0.52910
O430        O  0.72047172  0.68450906  0.75354791    -0.97590
O431        O  0.73858943  0.61586089  0.79592674    -0.54810
O432        O  0.73695446  0.63038631  0.72532568    -0.74160
C433        C  0.73655928  0.61997148  0.69573427     0.98180
O434        O  0.65301074  0.59157657  0.63834749    -0.62980
O435        O  0.65546055  0.52401874  0.78395485    -0.57790
O436        O  0.67722767  0.56453236  0.68143712    -0.94470
O437        O  0.64748834  0.55754309  0.72096423    -0.92900
O438        O  0.57509202  0.55999676  0.75817561    -0.93250
O439        O  0.57247206  0.57991967  0.69761422    -0.92040
C440        C  0.66535665  0.54836047  0.70106227     1.17020
H441        H  0.60670121  0.58178180  0.80573338     0.32970
H442        H  0.61072369  0.62852099  0.68858631     0.43820
H443        H  0.70617206  0.58785021  0.73669955     0.37340
H444        H  0.66531420  0.67791320  0.79385893     0.33820
H445        H  0.54113920  0.62226063  0.72202205     0.25610
H446        H  0.66231779  0.71357757  0.69801436     0.31550
H447        H  0.74010733  0.68172197  0.74985770     0.37460
H448        H  0.55638313  0.56328495  0.76612382     0.31920
H449        H  0.66593249  0.51958132  0.80429334     0.30800
H450        H  0.70873721  0.55594675  0.80828180     0.32480
H451        H  0.75553504  0.62531110  0.78932912     0.31440
H452        H  0.58629392  0.58068123  0.67964776     0.35440
H453        H  0.63395769  0.59699489  0.63485290     0.28180
H454        H  0.63473866  0.65599561  0.88459673     0.32410
H455        H  0.73771886  0.66892834  0.81323142     0.35260
H456        H  0.63624568  0.52104187  0.79027984     0.27870
H457        H  0.66361340  0.60182388  0.62156502     0.40740
H458        H  0.58422940  0.69655524  0.71999450     0.30800
H459        H  0.55926116  0.64828653  0.72533412     0.38410
H460        H  0.73946648  0.59822442  0.78420021     0.30260
H461        H  0.66681374  0.71960820  0.73616935     0.30330
H462        H  0.66156930  0.66488373  0.86642590     0.30590
Zr463      Zr  0.63324663  0.34744196  0.61222210     2.17510
O464        O  0.64752914  0.33023842  0.55779819    -0.51760
O465        O  0.58510786  0.35159640  0.60002526    -0.74970
O466        O  0.62045795  0.29976613  0.60754481    -0.81750
O467        O  0.65944065  0.41756032  0.58832903    -0.83500
O468        O  0.61701185  0.28175396  0.65989842    -0.79120
O469        O  0.63225361  0.38369650  0.56863243    -0.90760
O470        O  0.56837181  0.37948741  0.64013974    -0.76720
O471        O  0.60679458  0.34282327  0.66218432    -0.86210
O472        O  0.62838032  0.39153412  0.63483046    -0.85900
O473        O  0.65908520  0.31975052  0.65057004    -0.72660
O474        O  0.67944951  0.36202317  0.62267190    -0.84790
Zr475      Zr  0.67243718  0.37577757  0.73198117     2.26420
Zr476      Zr  0.63202479  0.31567416  0.70063191     2.06270
Zr477      Zr  0.67376521  0.40656032  0.64448098     2.10050
Zr478      Zr  0.60202891  0.38748413  0.68334455     1.78760
O479        O  0.71415142  0.41536347  0.61113166    -0.93600
O480        O  0.56333970  0.36876629  0.71357255    -0.41400
O481        O  0.64702800  0.40384368  0.69453291    -0.78040
O482        O  0.62665251  0.36105529  0.72135325    -0.96720
O483        O  0.67760826  0.33072051  0.71248128    -0.90030
O484        O  0.69895551  0.37947781  0.68236738    -0.92870
C485        C  0.56592428  0.36547319  0.61314002     1.00880
C486        C  0.64330121  0.40752623  0.56619855     1.13810
C487        C  0.61623864  0.28000696  0.62777435     1.04590
O488        O  0.59023170  0.29259924  0.71671224    -0.95020
O489        O  0.62209785  0.32060058  0.76075156    -0.90770
O490        O  0.65860798  0.34508943  0.77689733    -0.83910
C491        C  0.63547082  0.33397817  0.78316595     1.11230
O492        O  0.71660199  0.30338254  0.61863234    -0.97000
Zr493      Zr  0.70431143  0.33510758  0.66294508     1.88940
O494        O  0.72046371  0.37119154  0.74502349    -0.73650
O495        O  0.65806520  0.27749101  0.72036834    -0.52910
O496        O  0.71596772  0.29133212  0.68593562    -0.97590
O497        O  0.74261498  0.35134874  0.62989863    -0.54810
O498        O  0.74062281  0.34648290  0.70401576    -0.74160
C499        C  0.74148007  0.36065645  0.73129035     0.98180
O500        O  0.66844645  0.39895066  0.78573572    -0.62980
O501        O  0.66028751  0.45376192  0.64511669    -0.57790
O502        O  0.67999967  0.42368328  0.73226968    -0.94470
O503        O  0.70144300  0.43141946  0.68367962    -0.92900
O504        O  0.58915365  0.43284742  0.66701393    -0.93250
O505        O  0.58852210  0.41594769  0.73032139    -0.92040
C506        C  0.69203686  0.43926123  0.71166737     1.17020
H507        H  0.61822519  0.40364950  0.62097293     0.32970
H508        H  0.61564151  0.36341643  0.74104786     0.43820
H509        H  0.71664314  0.38747685  0.68578806     0.37340
H510        H  0.66210323  0.30213578  0.64093968     0.33820
H511        H  0.54765332  0.37943380  0.70597416     0.25610
H512        H  0.64467653  0.26613506  0.73241014     0.31550
H513        H  0.73575666  0.29239604  0.69003993     0.37460
H514        H  0.56913278  0.43209445  0.66512995     0.31920
H515        H  0.67112449  0.46239661  0.62721326     0.30800
H516        H  0.71606629  0.43527661  0.61118580     0.32480
H517        H  0.75870957  0.34268778  0.63981462     0.31440
H518        H  0.60513329  0.41792572  0.74409208     0.35440
H519        H  0.68572010  0.40877236  0.78998471     0.28180
H520        H  0.63091653  0.32229725  0.54766365     0.32410
H521        H  0.73522089  0.29746255  0.62396228     0.35260
H522        H  0.64143416  0.45365116  0.63658445     0.27870
H523        H  0.65435661  0.41291890  0.78333204     0.40740
H524        H  0.57591066  0.30133314  0.70336463     0.30800
H525        H  0.56035456  0.35066572  0.70349238     0.38410
H526        H  0.74459647  0.37065397  0.63608062     0.30260
H527        H  0.66233221  0.26703307  0.69984689     0.30330
H528        H  0.65911709  0.31458487  0.56287253     0.30590
Zr529      Zr  0.66864939  0.10883317  0.23356611     2.17510
O530        O  0.67054401  0.09323832  0.29133221    -0.51760
O531        O  0.71479015  0.12068432  0.24928534    -0.74970
O532        O  0.67951671  0.06163561  0.23648173    -0.81750
O533        O  0.61905706  0.16553577  0.25766078    -0.83500
O534        O  0.70002821  0.05774108  0.18681903    -0.79120
O535        O  0.64393378  0.13106041  0.27829800    -0.90760
O536        O  0.73771905  0.13202914  0.20214749    -0.76720
O537        O  0.69457068  0.10179274  0.18408583    -0.86210
O538        O  0.67776263  0.15258847  0.21171799    -0.85900
O539        O  0.64076826  0.07981165  0.19807422    -0.72660
O540        O  0.62503235  0.12679773  0.22176236    -0.84790
Zr541      Zr  0.63113858  0.13520059  0.11314013     2.26420
Zr542      Zr  0.66707679  0.07456613  0.14770911     2.06270
Zr543      Zr  0.63374989  0.17032803  0.19957252     2.10050
Zr544      Zr  0.70286470  0.14476761  0.16136831     1.78760
O545        O  0.59533052  0.19853941  0.21436551    -0.93600
O546        O  0.73899732  0.12462785  0.12827699    -0.41400
O547        O  0.65908797  0.16311068  0.14917365    -0.78040
O548        O  0.67578973  0.11757005  0.12301258    -0.96720
O549        O  0.62338702  0.09238013  0.13701898    -0.90030
O550        O  0.60600343  0.14321442  0.16333854    -0.92870
C551        C  0.73679265  0.12559995  0.23327301     1.00880
C552        C  0.62639974  0.14987019  0.28138611     1.13810
C553        C  0.69268742  0.04803963  0.21480058     1.04590
O554        O  0.70327971  0.05625224  0.11315220    -0.95020
O555        O  0.65032136  0.06225506  0.09255995    -0.90770
O556        O  0.62651412  0.09771333  0.07229010    -0.83910
C557        C  0.63505928  0.07319879  0.07061597     1.11230
O558        O  0.58278353  0.07439162  0.23500312    -0.97000
Zr559      Zr  0.59764628  0.09958247  0.18598046     1.88940
O560        O  0.58276863  0.13255537  0.10111815    -0.73650
O561        O  0.64914754  0.02890211  0.15332334    -0.52910
O562        O  0.58171310  0.05486459  0.16881608    -0.97590
O563        O  0.56048579  0.12098721  0.21607056    -0.54810
O564        O  0.56426507  0.10806415  0.14316864    -0.74160
C565        C  0.56255344  0.12090851  0.11551739     0.98180
O566        O  0.64650668  0.15032836  0.05831609    -0.62980
O567        O  0.66253094  0.20720117  0.21996833    -0.57790
O568        O  0.62198761  0.18279992  0.10620224    -0.94470
O569        O  0.62086075  0.20286330  0.15771790    -0.92900
O570        O  0.71987155  0.18860990  0.18028282    -0.93250
O571        O  0.71805484  0.17369080  0.11595053    -0.92040
C572        C  0.61920424  0.20333794  0.12571076     1.17020
H573        H  0.68774899  0.16356716  0.22765444     0.32970
H574        H  0.68522328  0.11537665  0.10198875     0.43820
H575        H  0.58942466  0.15286922  0.15929852     0.37340
H576        H  0.63698583  0.06252364  0.20810334     0.33820
H577        H  0.75581412  0.13372496  0.13618410     0.25610
H578        H  0.63089109  0.02939255  0.14304260     0.31550
H579        H  0.56179571  0.05654612  0.16664974     0.37460
H580        H  0.73965497  0.18615712  0.18298112     0.31920
H581        H  0.65628387  0.22326700  0.20769309     0.30800
H582        H  0.60348104  0.21497021  0.22463103     0.32480
H583        H  0.54380379  0.11511163  0.20417013     0.31440
H584        H  0.70417481  0.17110204  0.09827491     0.35440
H585        H  0.65872741  0.16587166  0.06306059     0.28180
H586        H  0.68873669  0.08527057  0.29408949     0.32410
H587        H  0.56387028  0.06863731  0.23024480     0.35260
H588        H  0.65651169  0.21029062  0.24331886     0.27870
H589        H  0.65882572  0.13603666  0.05021328     0.40740
H590        H  0.71034832  0.07182322  0.10033637     0.30800
H591        H  0.74036790  0.10596452  0.13675156     0.38410
H592        H  0.56232174  0.14045249  0.21104119     0.30260
H593        H  0.66008008  0.01788761  0.13766847     0.30330
H594        H  0.65771605  0.07775536  0.29252417     0.30590
Zr595      Zr  0.66787543  0.87277489  0.20011807     2.17510
O596        O  0.66639629  0.88741979  0.14195928    -0.51760
O597        O  0.71640912  0.86842578  0.18987364    -0.74970
O598        O  0.67742337  0.92031297  0.19545824    -0.81750
O599        O  0.61568757  0.82154892  0.17781533    -0.83500
O600        O  0.69807366  0.92458702  0.24488305    -0.79120
O601        O  0.65103712  0.84406396  0.15488072    -0.90760
O602        O  0.73698490  0.84835164  0.23388371    -0.76720
O603        O  0.69323676  0.88037703  0.24995118    -0.86210
O604        O  0.67628782  0.82938877  0.22297155    -0.85900
O605        O  0.63868242  0.90097006  0.23436514    -0.72660
O606        O  0.62367110  0.85502839  0.21224620    -0.84790
Zr607      Zr  0.62873586  0.84766542  0.32124792     2.26420
Zr608      Zr  0.66498617  0.90790492  0.28429761     2.06270
Zr609      Zr  0.63174175  0.81167970  0.23459918     2.10050
Zr610      Zr  0.70068896  0.83771862  0.27378482     1.78760
O611        O  0.59406799  0.78176771  0.21964412    -0.93600
O612        O  0.73675382  0.85889447  0.30670927    -0.41400
O613        O  0.65643181  0.81976475  0.28545086    -0.78040
O614        O  0.67354741  0.86566215  0.31063493    -0.96720
O615        O  0.62112206  0.88999655  0.29633723    -0.90030
O616        O  0.60379394  0.83804449  0.27109988    -0.92870
C617        C  0.73755210  0.86004284  0.20528035     1.00880
C618        C  0.62767542  0.83266115  0.15277690     1.13810
C619        C  0.69052804  0.93428535  0.21707825     1.04590
O620        O  0.69984059  0.93273087  0.31518393    -0.95020
O621        O  0.65352061  0.91884526  0.34141352    -0.90770
O622        O  0.62575548  0.88597652  0.36160118    -0.83910
C623        C  0.63745161  0.90941282  0.36376117     1.11230
O624        O  0.57936465  0.90784549  0.20065853    -0.97000
Zr625      Zr  0.59530297  0.88111926  0.24760150     1.88940
O626        O  0.58030229  0.84993773  0.33333763    -0.73650
O627        O  0.64373155  0.95147693  0.27613190    -0.52910
O628        O  0.57841937  0.92502825  0.26531953    -0.97590
O629        O  0.56108998  0.85765445  0.21391488    -0.54810
O630        O  0.56074402  0.87076702  0.28916734    -0.74160
C631        C  0.55958318  0.85929449  0.31786436     0.98180
O632        O  0.64389382  0.83314220  0.37628642    -0.62980
O633        O  0.65921059  0.77556266  0.21111067    -0.57790
O634        O  0.62000130  0.79969420  0.32877536    -0.94470
O635        O  0.62017705  0.77916246  0.27751563    -0.92900
O636        O  0.71600622  0.79307191  0.25687967    -0.93250
O637        O  0.71458502  0.80996452  0.32063875    -0.92040
C638        C  0.61813857  0.77878522  0.30955729     1.17020
H639        H  0.68646681  0.81846556  0.20738353     0.32970
H640        H  0.68297204  0.86866027  0.33156010     0.43820
H641        H  0.58732753  0.82790570  0.27528130     0.37340
H642        H  0.63483422  0.91787862  0.22373525     0.33820
H643        H  0.75346348  0.84938483  0.29990518     0.25610
H644        H  0.65671817  0.96472817  0.28588057     0.31550
H645        H  0.57799708  0.92436615  0.29007868     0.37460
H646        H  0.73590905  0.79501858  0.25436020     0.31920
H647        H  0.65200743  0.75888454  0.22149007     0.30800
H648        H  0.60159109  0.76908367  0.20286426     0.32480
H649        H  0.54352076  0.86266200  0.22408243     0.31440
H650        H  0.70167162  0.81450069  0.33875357     0.35440
H651        H  0.65744098  0.81902427  0.37151673     0.28180
H652        H  0.68403755  0.89651255  0.13776604     0.32410
H653        H  0.55990709  0.91113265  0.20509305     0.35260
H654        H  0.65351470  0.77423952  0.18738213     0.27870
H655        H  0.65486707  0.84837099  0.38532493     0.40740
H656        H  0.71268728  0.91873417  0.32249942     0.30800
H657        H  0.73882950  0.87718363  0.29716780     0.38410
H658        H  0.56322291  0.83833165  0.21934173     0.30260
H659        H  0.62815450  0.95150014  0.29177178     0.30330
H660        H  0.65281289  0.90199966  0.14137063     0.30590
Zr661      Zr  0.86378422  0.06356409  0.48215088     2.17510
O662        O  0.84651032  0.07195786  0.53852648    -0.51760
O663        O  0.87379735  0.01694385  0.49449223    -0.74970
O664        O  0.81782296  0.04793667  0.48747560    -0.81750
O665        O  0.91545313  0.11407958  0.50739119    -0.83500
O666        O  0.81168192  0.03134453  0.43574350    -0.79120
O667        O  0.89494912  0.07641715  0.52638858    -0.90760
O668        O  0.88949893  0.99692444  0.44701878    -0.76720
O669        O  0.85613139  0.03896242  0.43162796    -0.86210
O670        O  0.90725230  0.05716856  0.45792926    -0.85900
O671        O  0.83352998  0.09098138  0.44927915    -0.72660
O672        O  0.87977622  0.10854774  0.47278022    -0.84790
Zr673      Zr  0.88678580  0.10500980  0.36317968     2.26420
Zr674      Zr  0.82721049  0.06596565  0.39789954     2.06270
Zr675      Zr  0.92324907  0.10229618  0.44857729     2.10050
Zr676      Zr  0.89898054  0.03314029  0.40684803     1.78760
O677        O  0.95109892  0.14084381  0.46579920    -0.93600
O678        O  0.87832602  0.99652591  0.37441419    -0.41400
O679        O  0.91611647  0.07792242  0.39708965    -0.78040
O680        O  0.87007862  0.05967920  0.37110017    -0.96720
O681        O  0.84397713  0.11043642  0.38873251    -0.90030
O682        O  0.89498458  0.12937706  0.41412536    -0.92870
C683        C  0.88147467  0.99624333  0.47765964     1.00880
C684        C  0.90587126  0.09964901  0.53128659     1.13810
C685        C  0.80301591  0.03680794  0.46500889     1.04590
O686        O  0.81064662  0.03018281  0.36085417    -0.95020
O687        O  0.81344638  0.08540060  0.34507172    -0.90770
O688        O  0.84919143  0.10852079  0.32279621    -0.83910
C689        C  0.82425357  0.10040502  0.32256028     1.11230
O690        O  0.82588854  0.14837145  0.48824925    -0.97000
Zr691      Zr  0.85140801  0.13527614  0.43850842     1.88940
O692        O  0.88222436  0.15290310  0.35276496    -0.73650
O693        O  0.77999282  0.07933837  0.40447510    -0.52910
O694        O  0.80549828  0.14828671  0.42340591    -0.97590
O695        O  0.87245009  0.17282399  0.46901337    -0.54810
O696        O  0.85825475  0.16971262  0.39651584    -0.74160
C697        C  0.87034245  0.17225303  0.36825790     0.98180
O698        O  0.90245555  0.09137091  0.30774200    -0.62980
O699        O  0.96148763  0.07544367  0.46708075    -0.57790
O700        O  0.93393429  0.11756232  0.35592815    -0.94470
O701        O  0.95463791  0.11875211  0.40691777    -0.92900
O702        O  0.94420019  0.01797671  0.42169396    -0.93250
O703        O  0.92642624  0.02113254  0.35842630    -0.92040
C704        C  0.95465672  0.12111662  0.37501719     1.17020
H705        H  0.91880403  0.04719865  0.47282331     0.32970
H706        H  0.86768741  0.05082261  0.34966373     0.43820
H707        H  0.90416527  0.14640203  0.41042799     0.37340
H708        H  0.81651153  0.09325750  0.46077023     0.33820
H709        H  0.88937031  0.98050641  0.37957602     0.25610
H710        H  0.76964090  0.06225830  0.40700382     0.31550
H711        H  0.80635295  0.16814983  0.42099551     0.37460
H712        H  0.94260428  0.99805699  0.42255203     0.31920
H713        H  0.97743633  0.08344485  0.45565142     0.30800
H714        H  0.96668912  0.13297209  0.47775246     0.32480
H715        H  0.88626722  0.18029653  0.45357149     0.31440
H716        H  0.92009960  0.03320824  0.34047780     0.35440
H717        H  0.91867166  0.08027225  0.31192997     0.28180
H718        H  0.83679033  0.05531938  0.54538082     0.32410
H719        H  0.82022605  0.16721175  0.48438682     0.35260
H720        H  0.96392537  0.08042938  0.49094784     0.27870
H721        H  0.88868185  0.07822158  0.29955426     0.40740
H722        H  0.82713330  0.02133283  0.35215137     0.30800
H723        H  0.86073366  0.99299337  0.38559799     0.38410
H724        H  0.88313257  0.16422044  0.48691573     0.30260
H725        H  0.77873091  0.08846213  0.42650260     0.30330
H726        H  0.83221338  0.08565429  0.53573579     0.30590
Zr727      Zr  0.62901761  0.06635422  0.45329446     2.17510
O728        O  0.64344575  0.06138830  0.39509900    -0.51760
O729        O  0.61885718  0.01997286  0.43747006    -0.74970
O730        O  0.67618778  0.05508839  0.45115175    -0.81750
O731        O  0.57543614  0.11971820  0.42776145    -0.83500
O732        O  0.67904412  0.03359274  0.50030347    -0.79120
O733        O  0.61256487  0.09674604  0.41016958    -0.90760
O734        O  0.59902822  0.99807564  0.48089125    -0.76720
O735        O  0.63105890  0.03879603  0.50169518    -0.86210
O736        O  0.58332606  0.05993427  0.47144944    -0.85900
O737        O  0.65837553  0.09053627  0.49250057    -0.72660
O738        O  0.61324554  0.11037274  0.46622037    -0.84790
Zr739      Zr  0.59964005  0.10396956  0.57364706     2.26420
Zr740      Zr  0.65801671  0.06260358  0.54176180     2.06270
Zr741      Zr  0.56792284  0.10450170  0.48514017     2.10050
Zr742      Zr  0.58620212  0.03364521  0.52129851     1.78760
O743        O  0.54265145  0.14452193  0.46977546    -0.93600
O744        O  0.60118210  0.99550880  0.55441964    -0.41400
O745        O  0.57117872  0.07846582  0.53509983    -0.78040
O746        O  0.61305098  0.05779070  0.56321920    -0.96720
O747        O  0.64381790  0.10760256  0.55171968    -0.90030
O748        O  0.59568909  0.12972398  0.52358403    -0.92870
C749        C  0.61059294  0.99840449  0.45197582     1.00880
C750        C  0.59383117  0.11427869  0.40602669     1.13810
C751        C  0.68907347  0.04121119  0.47251186     1.04590
O752        O  0.65764111  0.02347069  0.57826511    -0.95020
O753        O  0.67292933  0.08705692  0.59134591    -0.90770
O754        O  0.63677052  0.10747220  0.61566507    -0.83910
C755        C  0.66217313  0.10123161  0.61476893     1.11230
O756        O  0.67201069  0.14737361  0.45901437    -0.97000
Zr757      Zr  0.64113157  0.13484401  0.50409837     1.88940
O758        O  0.60497441  0.15209978  0.58698062    -0.73650
O759        O  0.70612478  0.06237795  0.55609075    -0.52910
O760        O  0.68532281  0.14809985  0.52645494    -0.97590
O761        O  0.62365441  0.17257247  0.47207234    -0.54810
O762        O  0.63262499  0.16866828  0.54659044    -0.74160
C763        C  0.61869582  0.17139449  0.57345168     0.98180
O764        O  0.58145461  0.08847565  0.62693052    -0.62980
O765        O  0.52990382  0.07817641  0.46286401    -0.57790
O766        O  0.55304407  0.11831473  0.57862254    -0.94470
O767        O  0.53487993  0.11888940  0.52639381    -0.92900
O768        O  0.54216974  0.02136086  0.49777332    -0.93250
O769        O  0.55286761  0.01973328  0.56284635    -0.92040
C770        C  0.53328292  0.12197108  0.55827473     1.17020
H771        H  0.57263174  0.05113954  0.45420779     0.32970
H772        H  0.61290912  0.04801642  0.58403962     0.43820
H773        H  0.58713551  0.14691829  0.52739798     0.37340
H774        H  0.67668674  0.09351957  0.48473323     0.33820
H775        H  0.58986923  0.98008134  0.54659632     0.25610
H776        H  0.71426583  0.04688855  0.54416571     0.31550
H777        H  0.68556868  0.16807481  0.52592931     0.37460
H778        H  0.54356456  0.00190239  0.49228249     0.31920
H779        H  0.51392415  0.08463779  0.47549260     0.30800
H780        H  0.52551330  0.13748943  0.45997248     0.32480
H781        H  0.62653003  0.18872058  0.48643001     0.31440
H782        H  0.55611718  0.03203831  0.58211112     0.35440
H783        H  0.56580661  0.07678084  0.62075375     0.28180
H784        H  0.65127020  0.04311042  0.39327204     0.32410
H785        H  0.67646914  0.16668841  0.46281508     0.35260
H786        H  0.52728642  0.08510123  0.43992177     0.27870
H787        H  0.59513445  0.07579514  0.63554598     0.40740
H788        H  0.66733544  0.02962809  0.59868535     0.30800
H789        H  0.61956485  0.99149510  0.54586875     0.38410
H790        H  0.60374200  0.16978049  0.47175780     0.30260
H791        H  0.71401615  0.07871897  0.54568335     0.30330
H792        H  0.65918188  0.07380211  0.39256613     0.30590
Zr793      Zr  0.85688094  0.91997644  0.95691311     2.17510
O794        O  0.83740715  0.92296802  0.90093780    -0.51760
O795        O  0.87185096  0.96494770  0.94061144    -0.74970
O796        O  0.81055162  0.93642444  0.95944911    -0.81750
O797        O  0.91273985  0.87074039  0.92776699    -0.83500
O798        O  0.80718001  0.95216184  0.01209155    -0.79120
O799        O  0.87482483  0.89279070  0.91115770    -0.90760
O800        O  0.88646168  0.98726967  0.98713472    -0.76720
O801        O  0.85266716  0.94467008  0.00760169    -0.86210
O802        O  0.90198743  0.92818202  0.97632039    -0.85900
O803        O  0.82935415  0.89116255  0.99205484    -0.72660
O804        O  0.87503042  0.87640255  0.96702188    -0.84790
Zr805      Zr  0.88853870  0.88015815  0.07492398     2.26420
Zr806      Zr  0.82670573  0.91628402  0.04342365     2.06270
Zr807      Zr  0.91988144  0.88420807  0.98620702     2.10050
Zr808      Zr  0.89691801  0.95218605  0.02804244     1.78760
O809        O  0.94584294  0.84439878  0.97097685    -0.93600
O810        O  0.87712348  0.98890674  0.06039402    -0.41400
O811        O  0.91510338  0.90832678  0.03800403    -0.78040
O812        O  0.87073580  0.92470561  0.06646187    -0.96720
O813        O  0.84450989  0.87266600  0.05312002    -0.90030
O814        O  0.89444293  0.85602277  0.02332031    -0.92870
C815        C  0.87919057  0.98656928  0.95622677     1.00880
C816        C  0.89443303  0.87636946  0.90607302     1.13810
C817        C  0.79828345  0.94994855  0.98230994     1.04590
O818        O  0.80662901  0.94966607  0.08059341    -0.95020
O819        O  0.81750426  0.90250164  0.09966971    -0.90770
O820        O  0.85196645  0.87628741  0.11779404    -0.83910
C821        C  0.82822000  0.88690420  0.12118901     1.11230
O822        O  0.82080554  0.83221472  0.95696870    -0.97000
Zr823      Zr  0.84968210  0.84782861  0.00290022     1.88940
O824        O  0.88567342  0.83206818  0.08564588    -0.73650
O825        O  0.78199412  0.89571204  0.03524439    -0.52910
O826        O  0.80622047  0.83172598  0.02432870    -0.97590
O827        O  0.87015470  0.81355664  0.96705777    -0.54810
O828        O  0.86210242  0.81291910  0.04251593    -0.74160
C829        C  0.87508486  0.81165859  0.07034841     0.98180
O830        O  0.90631477  0.89491968  0.12905997    -0.62980
O831        O  0.95651086  0.91151093  0.96268603    -0.57790
O832        O  0.93677533  0.86990623  0.07915984    -0.94470
O833        O  0.95449850  0.87416936  0.02678625    -0.92900
O834        O  0.94211628  0.96626600  0.01028977    -0.93250
O835        O  0.92566286  0.96741049  0.07412561    -0.92040
C836        C  0.95670288  0.87003910  0.05829854     1.17020
H837        H  0.91271143  0.93809854  0.96025098     0.32970
H838        H  0.86908902  0.93395591  0.08773287     0.43820
H839        H  0.90447744  0.83956773  0.02616896     0.37340
H840        H  0.81166250  0.88831841  0.98218868     0.33820
H841        H  0.88656983  0.00539880  0.05248726     0.25610
H842        H  0.77174949  0.90047309  0.05573226     0.31550
H843        H  0.80828464  0.81195877  0.02649181     0.37460
H844        H  0.94068430  0.98591846  0.00645824     0.31920
H845        H  0.97335416  0.90252067  0.96984863     0.30800
H846        H  0.96206658  0.85152539  0.95925611     0.32480
H847        H  0.86800745  0.79640492  0.97937140     0.31440
H848        H  0.92444188  0.95269773  0.09070050     0.35440
H849        H  0.92210134  0.90660642  0.12365797     0.28180
H850        H  0.83121484  0.94182503  0.89880769     0.32410
H851        H  0.81634617  0.81312742  0.96193987     0.35260
H852        H  0.95553914  0.90805996  0.93826819     0.27870
H853        H  0.89264979  0.90760544  0.13794886     0.40740
H854        H  0.82182967  0.96198848  0.08657731     0.30800
H855        H  0.85842903  0.99046994  0.05161422     0.38410
H856        H  0.88986327  0.81754704  0.96784894     0.30260
H857        H  0.77328601  0.90617888  0.01727812     0.30330
H858        H  0.82053401  0.91196510  0.90165609     0.30590
Zr859      Zr  0.63102952  0.91971458  0.97918413     2.17510
O860        O  0.65134526  0.92248905  0.03480063    -0.51760
O861        O  0.61609336  0.96417700  0.99660180    -0.74970
O862        O  0.67697027  0.93795270  0.97649239    -0.81750
O863        O  0.57733054  0.86737383  0.00681059    -0.83500
O864        O  0.67864065  0.95508897  0.92475074    -0.79120
O865        O  0.61309425  0.89282376  0.02531034    -0.90760
O866        O  0.60303189  0.98582414  0.94953771    -0.76720
O867        O  0.63461700  0.94487668  0.92895289    -0.86210
O868        O  0.58561319  0.92570328  0.96015782    -0.85900
O869        O  0.65950371  0.89284434  0.94291745    -0.72660
O870        O  0.61396704  0.87534504  0.96829619    -0.84790
Zr871      Zr  0.60101474  0.87812365  0.86079668     2.26420
Zr872      Zr  0.66125374  0.91812732  0.89179091     2.06270
Zr873      Zr  0.56887682  0.88090457  0.94892337     2.10050
Zr874      Zr  0.59008105  0.95013663  0.90913746     1.78760
O875        O  0.54271591  0.84123572  0.96546120    -0.93600
O876        O  0.60741936  0.98687426  0.87480424    -0.41400
O877        O  0.57335553  0.90526244  0.89773720    -0.78040
O878        O  0.61662158  0.92394267  0.86982696    -0.96720
O879        O  0.64545016  0.87323256  0.88222559    -0.90030
O880        O  0.59569833  0.85403747  0.91200957    -0.92870
C881        C  0.61010144  0.98560505  0.98055978     1.00880
C882        C  0.59455631  0.87468999  0.02939356     1.13810
C883        C  0.68866823  0.95209290  0.95381153     1.04590
O884        O  0.68540684  0.95013622  0.85645323    -0.95020
O885        O  0.66248092  0.91159353  0.83177111    -0.90770
O886        O  0.63935151  0.87329981  0.82094944    -0.83910
C887        C  0.65958174  0.88938450  0.81560048     1.11230
O888        O  0.67032695  0.83610694  0.97846832    -0.97000
Zr889      Zr  0.64079463  0.84844336  0.93219570     1.88940
O890        O  0.60439087  0.82987253  0.85037206    -0.73650
O891        O  0.70603001  0.89803732  0.89705706    -0.52910
O892        O  0.68452142  0.83420062  0.91023809    -0.97590
O893        O  0.62242031  0.81262275  0.96732280    -0.53210
O894        O  0.62958065  0.81263423  0.89260402    -0.74160
C895        C  0.61600933  0.81023510  0.86530414     0.98180
O896        O  0.58423057  0.89154701  0.80610231    -0.62980
O897        O  0.53160150  0.90745820  0.97132073    -0.57790
O898        O  0.55369149  0.86491748  0.85588514    -0.94470
O899        O  0.53505912  0.86666972  0.90788270    -0.92900
O900        O  0.54572440  0.96340025  0.93002939    -0.93250
O901        O  0.55884328  0.96398986  0.86549114    -0.92040
C902        C  0.53354066  0.86258292  0.87611210     1.17020
H903        H  0.57481917  0.93512515  0.97659918     0.32970
H904        H  0.61736705  0.93333684  0.84874216     0.43820
H905        H  0.58623959  0.83702889  0.90907484     0.37340
H906        H  0.67728934  0.89089935  0.95265919     0.33820
H907        H  0.59925220  0.00337519  0.88443731     0.25610
H908        H  0.71714105  0.90673189  0.87949283     0.31550
H909        H  0.68330847  0.81425479  0.90908392     0.37460
H910        H  0.54773671  0.98282534  0.93559285     0.31920
H911        H  0.51527297  0.90042872  0.95960426     0.30800
H912        H  0.52602950  0.84849850  0.97579575     0.32480
H913        H  0.62742341  0.79558301  0.95589846     0.31440
H914        H  0.56018344  0.94967083  0.84815913     0.35440
H915        H  0.56876753  0.90352256  0.81109475     0.28180
H916        H  0.65726176  0.94152730  0.03765186     0.32410
H917        H  0.67623836  0.81745376  0.97353301     0.35260
H918        H  0.52948555  0.90122489  0.99467187     0.27870
H919        H  0.59839471  0.90382801  0.79715954     0.40740
H920        H  0.67314970  0.96578317  0.85488101     0.30800
H921        H  0.62688661  0.98832724  0.88071612     0.38410
H922        H  0.60250818  0.81373682  0.96455410     0.30260
H923        H  0.71359406  0.90542896  0.91820693     0.30330
H924        H  0.66837317  0.91212443  0.03318779     0.30590
Zr925      Zr  0.81649295  0.10150265  0.70769036     2.17510
O926        O  0.81289679  0.07986275  0.65277380    -0.51760
O927        O  0.77285518  0.11762384  0.68901722    -0.74970
O928        O  0.79600849  0.05678121  0.71218827    -0.81750
O929        O  0.87029799  0.15316504  0.67643036    -0.83500
O930        O  0.78135838  0.05369985  0.76542740    -0.79120
O931        O  0.84618290  0.11535319  0.66222890    -0.90760
O932        O  0.75057235  0.13361081  0.73453063    -0.76720
O933        O  0.79141414  0.09954121  0.75807464    -0.86210
O934        O  0.81093309  0.14744085  0.72457596    -0.85900
O935        O  0.84366445  0.07428953  0.74434669    -0.72660
O936        O  0.86092193  0.11878405  0.71764927    -0.84790
Zr937      Zr  0.85849501  0.13527261  0.82368827     2.26420
Zr938      Zr  0.81828119  0.07407401  0.79568363     2.06270
Zr939      Zr  0.85616431  0.16445230  0.73410726     2.10050
Zr940      Zr  0.78627402  0.14454501  0.77600196     1.78760
O941        O  0.89724329  0.18882247  0.71812549    -0.93600
O942        O  0.74790423  0.12767864  0.80836313    -0.41400
O943        O  0.83147474  0.16136338  0.78556521    -0.78040
O944        O  0.81251491  0.11905166  0.81626357    -0.96720
O945        O  0.86306904  0.09086422  0.80322932    -0.90030
O946        O  0.88314668  0.13905463  0.77223759    -0.92870
C947        C  0.75126392  0.12567996  0.70374415     1.00880
C948        C  0.86423310  0.13359983  0.65620233     1.13810
C949        C  0.78217527  0.04515634  0.73530362     1.04590
O950        O  0.78482812  0.06446490  0.83891497    -0.95020
O951        O  0.84024892  0.06248715  0.84736338    -0.90770
O952        O  0.86433216  0.09906838  0.86595761    -0.83910
C953        C  0.85649570  0.07412320  0.86805269     1.11230
O954        O  0.90087549  0.06282786  0.70817811    -0.97000
Zr955      Zr  0.88852886  0.09344960  0.75365007     1.88940
O956        O  0.90703083  0.13228790  0.83417476    -0.73650
O957        O  0.82996860  0.02643874  0.79072877    -0.52910
O958        O  0.90331415  0.05053507  0.77631285    -0.97590
O959        O  0.92372706  0.11133506  0.71685659    -0.54810
O960        O  0.92435841  0.10530137  0.79330603    -0.74160
C961        C  0.92671115  0.11972574  0.82005822     0.98180
O962        O  0.84518356  0.15297202  0.87829454    -0.62980
O963        O  0.83051066  0.20028223  0.70769910    -0.57790
O964        O  0.86745669  0.18362488  0.82682180    -0.94470
O965        O  0.86755955  0.20058449  0.77382920    -0.92900
O966        O  0.77408162  0.18916925  0.75622502    -0.93250
O967        O  0.77308994  0.17524167  0.82086804    -0.92040
C968        C  0.86939055  0.20312640  0.80582349     1.17020
H969        H  0.80149082  0.15777484  0.70790965     0.32970
H970        H  0.80328964  0.11875402  0.83759691     0.43820
H971        H  0.90026504  0.14847362  0.77483252     0.37340
H972        H  0.84539868  0.05626946  0.73526742     0.33820
H973        H  0.73237970  0.13876203  0.80119373     0.25610
H974        H  0.82477268  0.02067743  0.76783639     0.31550
H975        H  0.92335670  0.05188145  0.77704901     0.37460
H976        H  0.75419662  0.18819911  0.75286982     0.31920
H977        H  0.83804287  0.21720400  0.71741514     0.30800
H978        H  0.89076768  0.20433132  0.70496061     0.32480
H979        H  0.94090084  0.10913181  0.72933183     0.31440
H980        H  0.78931137  0.17658564  0.83541176     0.35440
H981        H  0.83110695  0.16644561  0.87326990     0.28180
H982        H  0.79352320  0.07480337  0.65018470     0.32410
H983        H  0.91994544  0.05780821  0.71246765     0.35260
H984        H  0.83679367  0.20028933  0.68415810     0.27870
H985        H  0.83500791  0.13807929  0.88910414     0.40740
H986        H  0.76784198  0.07250045  0.83059208     0.30800
H987        H  0.74401346  0.10954660  0.79882514     0.38410
H988        H  0.92074436  0.13106301  0.71669066     0.30260
H989        H  0.85003557  0.02641898  0.79038225     0.30330
H990        H  0.82247593  0.06248821  0.65493147     0.30590
Zr991      Zr  0.82165665  0.88262242  0.72779718     2.17510
O992        O  0.82691593  0.90737963  0.78046798    -0.51760
O993        O  0.77703099  0.86921557  0.74684921    -0.74970
O994        O  0.80067846  0.92692050  0.72503120    -0.81750
O995        O  0.86866258  0.82610650  0.75641356    -0.83500
O996        O  0.78893578  0.93259625  0.67098462    -0.79120
O997        O  0.84491656  0.86251283  0.77485192    -0.90760
O998        O  0.75246504  0.85608567  0.70167085    -0.76720
O999        O  0.79643309  0.88691224  0.67787731    -0.86210
O1000       O  0.81156090  0.83765014  0.70964678    -0.85900
O1001       O  0.85049373  0.90884191  0.69157031    -0.72660
O1002       O  0.86460054  0.86263283  0.71737927    -0.84790
Zr1003     Zr  0.85908644  0.84836383  0.61003553     2.26420
Zr1004     Zr  0.82490499  0.91144046  0.64067006     2.06270
Zr1005     Zr  0.85486518  0.81806909  0.69834166     2.10050
Zr1006     Zr  0.78656262  0.84288821  0.65900401     1.78760
O1007       O  0.89179880  0.78945707  0.71667037    -0.93600
O1008       O  0.74980395  0.86344966  0.62782172    -0.41400
O1009       O  0.82997658  0.82301185  0.64737494    -0.78040
O1010       O  0.81474879  0.86732957  0.61914412    -0.96720
O1011       O  0.86806046  0.89211721  0.63125340    -0.90030
O1012       O  0.88367990  0.84252206  0.66096049    -0.92870
C1013       C  0.75430809  0.86420584  0.73238878     1.00880
C1014       C  0.86191046  0.84336042  0.77904607     1.13810
C1015       C  0.78800259  0.93942087  0.70179019     1.04590
O1016       O  0.79255360  0.92800889  0.59987041    -0.95020
O1017       O  0.84445309  0.92121730  0.58685427    -0.90770
O1018       O  0.86510411  0.88352348  0.56683386    -0.83910
C1019       C  0.85868608  0.90868095  0.56503741     1.11230
O1020       O  0.90852386  0.91564468  0.72738093    -0.97000
Zr1021     Zr  0.89330410  0.88713497  0.68086121     1.88940
O1022       O  0.90757846  0.85048865  0.59781915    -0.73650
O1023       O  0.84303706  0.95700306  0.64922220    -0.52910
O1024       O  0.91062615  0.92985507  0.65938254    -0.97590
O1025       O  0.92827226  0.86660296  0.71517324    -0.54810
O1026       O  0.92750421  0.87438263  0.64012466    -0.74160
C1027       C  0.92840550  0.86108501  0.61243839     0.98180
O1028       O  0.84264102  0.83031807  0.55679098    -0.62980
O1029       O  0.82472072  0.78290080  0.71966918    -0.57790
O1030       O  0.87019698  0.80087919  0.60574017    -0.94470
O1031       O  0.86773709  0.78354224  0.65810016    -0.92900
O1032       O  0.77050583  0.79900603  0.67812970    -0.93250
O1033       O  0.76952239  0.81426387  0.61372868    -0.92040
C1034       C  0.87172213  0.78122562  0.62646331     1.17020
H1035       H  0.80153521  0.82766388  0.72631464     0.32970
H1036       H  0.80532990  0.86875808  0.59803809     0.43820
H1037       H  0.89999348  0.83221471  0.65767244     0.37340
H1038       H  0.85361177  0.92653564  0.70122416     0.33820
H1039       H  0.73312411  0.85438748  0.63604864     0.25610
H1040       H  0.83650773  0.96728538  0.62971642     0.31550
H1041       H  0.93049946  0.92748579  0.65771868     0.37460
H1042       H  0.75095471  0.80153405  0.68271137     0.31920
H1043       H  0.83030697  0.76625391  0.70779197     0.30800
H1044       H  0.88277925  0.77364686  0.72702724     0.32480
H1045       H  0.94566913  0.87263220  0.70520793     0.31440
H1046       H  0.78305820  0.81640367  0.59560797     0.35440
H1047       H  0.83063519  0.81500114  0.56294428     0.28180
H1048       H  0.80847315  0.91312496  0.78695417     0.32410
H1049       H  0.92756955  0.92062031  0.72224208     0.35260
H1050       H  0.83063464  0.78025309  0.74308833     0.27870
H1051       H  0.83008403  0.84414457  0.54829213     0.40740
H1052       H  0.77726260  0.91492833  0.60060462     0.30800
H1053       H  0.74872178  0.88206285  0.63689041     0.38410
H1054       H  0.92711982  0.84707663  0.70985183     0.30260
H1055       H  0.83299448  0.96461368  0.66849407     0.30330
H1056       H  0.83662350  0.92427907  0.77456220     0.30590
Zr1057     Zr  0.35729811  0.13727693  0.61297974     2.17510
O1058       O  0.34040598  0.15462995  0.56015458    -0.51760
O1059       O  0.40532789  0.13596149  0.59941729    -0.74970
O1060       O  0.37051185  0.18463627  0.60890562    -0.81750
O1061       O  0.33119779  0.06768431  0.58675263    -0.83500
O1062       O  0.37306395  0.20259415  0.66145886    -0.79120
O1063       O  0.35816152  0.10186990  0.56802647    -0.90760
O1064       O  0.42563987  0.11359474  0.64180156    -0.76720
O1065       O  0.38443186  0.14267100  0.66227102    -0.86210
O1066       O  0.36493467  0.09314676  0.63339407    -0.85900
O1067       O  0.33137597  0.16392857  0.65282996    -0.72660
O1068       O  0.31218738  0.12044934  0.62449382    -0.84790
Zr1069     Zr  0.32309201  0.10605732  0.73231446     2.26420
Zr1070     Zr  0.35918482  0.16877976  0.70228480     2.06270
Zr1071     Zr  0.32049886  0.07609744  0.64457806     2.10050
Zr1072     Zr  0.39214190  0.09813027  0.68135357     1.78760
O1073       O  0.27784701  0.06587653  0.61633805    -0.93600
O1074       O  0.42933039  0.11570461  0.71564064    -0.41400
O1075       O  0.34824999  0.07937407  0.69315360    -0.78040
O1076       O  0.36753119  0.12366944  0.72080831    -0.96720
O1077       O  0.31504192  0.15099326  0.71490683    -0.90030
O1078       O  0.29553047  0.10158698  0.68389976    -0.92870
C1079       C  0.42627957  0.12656613  0.61421697     1.00880
C1080       C  0.34683664  0.07824850  0.56476250     1.13810
C1081       C  0.37474356  0.20442591  0.62937831     1.04590
O1082       O  0.40039512  0.19269396  0.71917119    -0.95020
O1083       O  0.36813310  0.16331836  0.76287814    -0.90770
O1084       O  0.33129670  0.13901101  0.77672637    -0.83910
C1085       C  0.35451862  0.14923306  0.78422132     1.11230
O1086       O  0.27224486  0.17633444  0.62261332    -0.97000
Zr1087     Zr  0.28736698  0.14594017  0.66640171     1.88940
O1088       O  0.27612370  0.10976739  0.75032661    -0.73650
O1089       O  0.33221254  0.20646042  0.72233119    -0.52910
O1090       O  0.27431303  0.18929995  0.69026195    -0.97590
O1091       O  0.24813775  0.12806961  0.63606385    -0.54810
O1092       O  0.25389364  0.13297406  0.70985313    -0.74160
C1093       C  0.25441084  0.11944841  0.73736346     0.98180
O1094       O  0.34719711  0.07898547  0.77283840    -0.62980
O1095       O  0.33673065  0.02990096  0.64027632    -0.57790
O1096       O  0.30356740  0.06174467  0.73743333    -0.94470
O1097       O  0.29931104  0.04590061  0.68381913    -0.92900
O1098       O  0.40956249  0.05651823  0.65705558    -0.93250
O1099       O  0.40615200  0.06539090  0.72298777    -0.92040
C1100       C  0.29726386  0.04362259  0.71566086     1.17020
H1101       H  0.37502993  0.08172436  0.61835027     0.32970
H1102       H  0.37904854  0.12239606  0.74018072     0.43820
H1103       H  0.27863643  0.09225168  0.68821893     0.37340
H1104       H  0.32775607  0.18146825  0.64361185     0.33820
H1105       H  0.44576206  0.10700992  0.70647594     0.25610
H1106       H  0.34537229  0.21834630  0.73419353     0.31550
H1107       H  0.25477815  0.18724506  0.69552337     0.37460
H1108       H  0.42952172  0.05896739  0.65706887     0.31920
H1109       H  0.32541468  0.02128238  0.62264373     0.30800
H1110       H  0.27730743  0.04593380  0.61457573     0.32480
H1111       H  0.23228369  0.13665532  0.64682086     0.31440
H1112       H  0.40397023  0.07463693  0.74485896     0.35440
H1113       H  0.35444384  0.06405177  0.75913765     0.28180
H1114       H  0.35681251  0.16079350  0.54800475     0.32410
H1115       H  0.25377968  0.18198967  0.62919835     0.35260
H1116       H  0.35501040  0.03150702  0.63017248     0.27870
H1117       H  0.36378819  0.08956822  0.77786048     0.40740
H1118       H  0.41496012  0.18420523  0.70580698     0.30800
H1119       H  0.43117994  0.13487269  0.70913561     0.38410
H1120       H  0.24681297  0.10889852  0.64271107     0.30260
H1121       H  0.32747937  0.21651957  0.70186099     0.30330
H1122       H  0.33072035  0.17139157  0.56616789     0.30590
Zr1123     Zr  0.35733944  0.84821413  0.81792110     2.17510
O1124       O  0.33798354  0.83402248  0.87109797    -0.51760
O1125       O  0.40538217  0.84846272  0.83228908    -0.74970
O1126       O  0.36661241  0.80037393  0.82473748    -0.81750
O1127       O  0.34310698  0.92078938  0.83709945    -0.83500
O1128       O  0.36742610  0.78002819  0.77334220    -0.79120
O1129       O  0.36133709  0.88417572  0.86186600    -0.90760
O1130       O  0.42749261  0.86789316  0.78866481    -0.76720
O1131       O  0.38389081  0.83885880  0.76903071    -0.86210
O1132       O  0.36927440  0.89059905  0.79464476    -0.85900
O1133       O  0.32910259  0.82204309  0.77946127    -0.72660
O1134       O  0.31401274  0.86819280  0.80522375    -0.84790
Zr1135     Zr  0.32545788  0.87683623  0.69491548     2.26420
Zr1136     Zr  0.35639398  0.81309551  0.73045708     2.06270
Zr1137     Zr  0.32668547  0.91057519  0.78169970     2.10050
Zr1138     Zr  0.39553096  0.88169186  0.74664239     1.78760
O1139       O  0.28071806  0.92605561  0.79221220    -0.93600
O1140       O  0.43122634  0.85890493  0.71545547    -0.41400
O1141       O  0.35379944  0.90301565  0.73307761    -0.78040
O1142       O  0.36839972  0.85677476  0.70835115    -0.96720
O1143       O  0.31392926  0.83359545  0.71667767    -0.90030
O1144       O  0.29868236  0.88562167  0.74407470    -0.92870
C1145       C  0.42703598  0.85658812  0.81737792     1.00880
C1146       C  0.35538824  0.90955682  0.86131901     1.13810
C1147       C  0.36904606  0.77955114  0.80552144     1.04590
O1148       O  0.39587714  0.78654258  0.71529617    -0.95020
O1149       O  0.36557292  0.81472139  0.66961765    -0.90770
O1150       O  0.32861463  0.83783683  0.65826205    -0.83910
C1151       C  0.35148150  0.82862248  0.64902528     1.11230
O1152       O  0.26964814  0.81565649  0.81102127    -0.97000
Zr1153     Zr  0.28689266  0.84275527  0.76478606     1.88940
O1154       O  0.27853325  0.87312621  0.67697522    -0.73650
O1155       O  0.32630881  0.77632799  0.71314203    -0.52910
O1156       O  0.27005919  0.79939784  0.74390286    -0.97590
O1157       O  0.24881235  0.86390686  0.79331897    -0.54810
O1158       O  0.25445680  0.85545274  0.72027368    -0.74160
C1159       C  0.25602809  0.86625565  0.69097339     0.98180
O1160       O  0.35006482  0.90081535  0.65106744    -0.62980
O1161       O  0.32783977  0.95840081  0.79717142    -0.57790
O1162       O  0.30584468  0.92018534  0.68530898    -0.94470
O1163       O  0.33469566  0.92629703  0.72563777    -0.92900
O1164       O  0.41513860  0.92438136  0.76596846    -0.93250
O1165       O  0.41378595  0.91022745  0.70243627    -0.92040
C1166       C  0.31551346  0.93550075  0.70787863     1.17020
H1167       H  0.38113502  0.90146890  0.80853745     0.32970
H1168       H  0.37995986  0.85634651  0.68890952     0.43820
H1169       H  0.28275947  0.89597481  0.73891460     0.37340
H1170       H  0.32391481  0.80520054  0.78973411     0.33820
H1171       H  0.44831414  0.86738965  0.72350543     0.25610
H1172       H  0.33855245  0.76266349  0.70334190     0.31550
H1173       H  0.25059438  0.80232204  0.73920936     0.37460
H1174       H  0.43471900  0.92074831  0.76874197     0.31920
H1175       H  0.31748434  0.96053836  0.81824913     0.30800
H1176       H  0.27737626  0.92173324  0.81602183     0.32480
H1177       H  0.23252352  0.85435994  0.78456888     0.31440
H1178       H  0.41049161  0.90005625  0.68138548     0.35440
H1179       H  0.35291903  0.91950863  0.65930271     0.28180
H1180       H  0.35319091  0.82571748  0.88333677     0.32410
H1181       H  0.25106103  0.80996612  0.80451659     0.35260
H1182       H  0.34691026  0.96283653  0.80299999     0.27870
H1183       H  0.36847609  0.89310053  0.65156785     0.40740
H1184       H  0.41051772  0.79335300  0.73017560     0.30800
H1185       H  0.43152055  0.84042713  0.72467685     0.38410
H1186       H  0.24772723  0.88217250  0.78360233     0.30260
H1187       H  0.31996456  0.76823153  0.73436624     0.30330
H1188       H  0.32563567  0.81880640  0.86532030     0.30590
Zr1189     Zr  0.10298888  0.87653581  0.56688019     2.17510
O1190       O  0.08549805  0.89216096  0.62060067    -0.51760
O1191       O  0.10468851  0.82862143  0.57886895    -0.74970
O1192       O  0.05494391  0.86495976  0.57104624    -0.81750
O1193       O  0.15994990  0.91251605  0.59561528    -0.83500
O1194       O  0.03635707  0.86620031  0.51896121    -0.79120
O1195       O  0.13848835  0.87478276  0.61037036    -0.90760
O1196       O  0.13210512  0.81026766  0.53916829    -0.76720
O1197       O  0.09588120  0.85174120  0.51599879    -0.86210
O1198       O  0.14734799  0.86707978  0.54564506    -0.85900
O1199       O  0.07753114  0.90518841  0.52976175    -0.72660
O1200       O  0.12378868  0.92021834  0.55790548    -0.84790
Zr1201     Zr  0.13487518  0.91432194  0.44691496     2.26420
Zr1202     Zr  0.07080979  0.87998067  0.47851667     2.06270
Zr1203     Zr  0.16792728  0.91018977  0.53590870     2.10050
Zr1204     Zr  0.14011398  0.84274882  0.49535941     1.78760
O1205       O  0.19941154  0.94689310  0.54932989    -0.93600
O1206       O  0.11590568  0.80546354  0.46810600    -0.41400
O1207       O  0.16068380  0.88574078  0.48496999    -0.78040
O1208       O  0.11545047  0.87030771  0.45783114    -0.96720
O1209       O  0.09085051  0.92348965  0.46841453    -0.90030
O1210       O  0.14265524  0.93921991  0.49929759    -0.92870
C1211       C  0.11800760  0.80900883  0.56602769     1.00880
C1212       C  0.15848077  0.89143997  0.61378271     1.13810
C1213       C  0.03467085  0.86287512  0.55081328     1.04590
O1214       O  0.04360654  0.84154811  0.45955954    -0.95020
O1215       O  0.07452709  0.87220564  0.41751169    -0.90770
O1216       O  0.09962203  0.90859046  0.40474902    -0.83910
C1217       C  0.08888825  0.88583024  0.39652836     1.11230
O1218       O  0.07217334  0.96306659  0.56745388    -0.97000
Zr1219     Zr  0.09866465  0.94802317  0.51937984     1.88940
O1220       O  0.13182849  0.96257505  0.43471243    -0.73650
O1221       O  0.03484665  0.91029334  0.46170107    -0.52910
O1222       O  0.05425532  0.96445244  0.50287779    -0.97590
O1223       O  0.12117929  0.98449434  0.55038063    -0.54810
O1224       O  0.10849596  0.98265878  0.47713914    -0.74160
C1225       C  0.12155035  0.98343695  0.44923568     0.98180
O1226       O  0.16276280  0.88826548  0.40781124    -0.62980
O1227       O  0.21033319  0.88659912  0.54587837    -0.57790
O1228       O  0.17798957  0.93268715  0.42790902    -0.94470
O1229       O  0.17376189  0.92096692  0.47849582    -0.92900
O1230       O  0.18544485  0.82693705  0.50864657    -0.93250
O1231       O  0.16607988  0.82559629  0.44793143    -0.92040
C1232       C  0.18945207  0.92906066  0.45569062     1.17020
H1233       H  0.15822580  0.85619324  0.56030342     0.32970
H1234       H  0.11568191  0.85921531  0.43794243     0.43820
H1235       H  0.15116144  0.95691312  0.49723305     0.37340
H1236       H  0.06022127  0.90941720  0.53967577     0.33820
H1237       H  0.12682168  0.78931821  0.47308762     0.25610
H1238       H  0.02205014  0.89867000  0.44887564     0.31550
H1239       H  0.05675278  0.98415735  0.50004821     0.37460
H1240       H  0.18322195  0.80728576  0.51223701     0.31920
H1241       H  0.22239255  0.89987083  0.55723813     0.30800
H1242       H  0.20154972  0.95687691  0.52810755     0.32480
H1243       H  0.13321901  0.99356879  0.53403865     0.31440
H1244       H  0.15349894  0.82574600  0.42862901     0.35440
H1245       H  0.17929375  0.88303328  0.42012700     0.28180
H1246       H  0.07726382  0.87596114  0.63101212     0.32410
H1247       H  0.06883290  0.98250078  0.56383098     0.35260
H1248       H  0.20596190  0.87316527  0.56332720     0.27870
H1249       H  0.15303546  0.87085144  0.40520907     0.40740
H1250       H  0.05432728  0.82558563  0.46584872     0.30800
H1251       H  0.09915036  0.80300582  0.48144387     0.38410
H1252       H  0.13374612  0.97528082  0.56576586     0.30260
H1253       H  0.02509910  0.91452874  0.48273659     0.30330
H1254       H  0.06994690  0.90376848  0.61495584     0.30590
Zr1255     Zr  0.38588291  0.87726879  0.36568953     2.17510
O1256       O  0.40383499  0.89176056  0.31184341    -0.51760
O1257       O  0.38281322  0.82885658  0.35487192    -0.74970
O1258       O  0.43337283  0.86435346  0.36094115    -0.81750
O1259       O  0.31559982  0.89940758  0.34016481    -0.83500
O1260       O  0.45221874  0.86437600  0.41293521    -0.79120
O1261       O  0.35131144  0.87522103  0.32055182    -0.90760
O1262       O  0.35804868  0.81090454  0.39712097    -0.76720
O1263       O  0.39081412  0.85209327  0.41600151    -0.86210
O1264       O  0.34123134  0.87088907  0.38701786    -0.85900
O1265       O  0.41358454  0.90435815  0.40351711    -0.72660
O1266       O  0.36963599  0.92263511  0.37507262    -0.84790
Zr1267     Zr  0.35673190  0.91600405  0.48606085     2.26420
Zr1268     Zr  0.41834297  0.87847996  0.45395439     2.06270
Zr1269     Zr  0.32481566  0.91557254  0.39656182     2.10050
Zr1270     Zr  0.34593139  0.84587284  0.43648248     1.78760
O1271       O  0.31243001  0.95927012  0.37408154    -0.93600
O1272       O  0.36396985  0.80970390  0.47075037    -0.41400
O1273       O  0.32856597  0.89001019  0.44677014    -0.78040
O1274       O  0.37305696  0.87132078  0.47443133    -0.96720
O1275       O  0.40170611  0.92289242  0.46567982    -0.90030
O1276       O  0.35193130  0.94195735  0.43461109    -0.92870
C1277       C  0.37164634  0.80879619  0.36996182     1.00880
C1278       C  0.32712616  0.88481615  0.31769287     1.13810
C1279       C  0.45364666  0.86151504  0.38092473     1.04590
O1280       O  0.44042623  0.83690213  0.47035428    -0.95020
O1281       O  0.41418253  0.87095923  0.51474071    -0.90770
O1282       O  0.39002118  0.90735584  0.52983662    -0.83910
C1283       C  0.40040963  0.88434417  0.53656303     1.11230
O1284       O  0.42719379  0.96143501  0.37033399    -0.97000
Zr1285     Zr  0.39655433  0.94842198  0.41551208     1.88940
O1286       O  0.36191673  0.96396930  0.49933586    -0.73650
O1287       O  0.45732737  0.90502832  0.47277309    -0.52910
O1288       O  0.44081526  0.96159288  0.43771515    -0.97590
O1289       O  0.38029008  0.98657984  0.38327310    -0.54810
O1290       O  0.38567127  0.98390537  0.45712647    -0.74160
C1291       C  0.37221496  0.98482111  0.48481158     0.98180
O1292       O  0.32705094  0.89047873  0.52362909    -0.62980
O1293       O  0.27559385  0.91085034  0.39597591    -0.57790
O1294       O  0.31446506  0.93471118  0.50589163    -0.94470
O1295       O  0.31712768  0.92661766  0.45385159    -0.92900
O1296       O  0.30266145  0.82870644  0.41537916    -0.93250
O1297       O  0.31284834  0.83363483  0.47930829    -0.92040
C1298       C  0.30232785  0.93335151  0.47814206     1.17020
H1299       H  0.32963936  0.85997413  0.37282172     0.32970
H1300       H  0.37201102  0.86014787  0.49399408     0.43820
H1301       H  0.34452132  0.95995046  0.43693062     0.37340
H1302       H  0.43114168  0.90779551  0.39368883     0.33820
H1303       H  0.35264746  0.79369688  0.46507186     0.25610
H1304       H  0.46964448  0.89164617  0.48276769     0.31550
H1305       H  0.43968993  0.98132139  0.44150648     0.37460
H1306       H  0.30437073  0.80881389  0.41573257     0.31920
H1307       H  0.27000094  0.91665304  0.37337026     0.30800
H1308       H  0.30881401  0.95573104  0.35006145     0.32480
H1309       H  0.38915673  0.00264564  0.39353179     0.31440
H1310       H  0.32329812  0.83150666  0.50025090     0.35440
H1311       H  0.31092104  0.88522468  0.51036284     0.28180
H1312       H  0.41124250  0.87522821  0.30135614     0.32410
H1313       H  0.43392074  0.97977857  0.37614920     0.35260
H1314       H  0.27224229  0.89111418  0.39607054     0.27870
H1315       H  0.33613432  0.87297969  0.52632507     0.40740
H1316       H  0.43180932  0.82271809  0.45623645     0.30800
H1317       H  0.38193568  0.80574310  0.46090847     0.38410
H1318       H  0.36092887  0.98826614  0.38940878     0.30260
H1319       H  0.46654378  0.91062554  0.45188915     0.30330
H1320       H  0.41995600  0.90301820  0.31737251     0.30590
Zr1321     Zr  0.13006030  0.13632333  0.32199308     2.17510
O1322       O  0.14396009  0.15387420  0.37655191    -0.51760
O1323       O  0.08145704  0.13300990  0.33302611    -0.74970
O1324       O  0.11834065  0.18425771  0.32683079    -0.81750
O1325       O  0.15867904  0.06782560  0.34661211    -0.83500
O1326       O  0.11886540  0.20248683  0.27437419    -0.79120
O1327       O  0.13057627  0.10039109  0.36615016    -0.90760
O1328       O  0.06412064  0.10757112  0.29079681    -0.76720
O1329       O  0.10426886  0.14105972  0.27159409    -0.86210
O1330       O  0.12369164  0.09212622  0.29967758    -0.85900
O1331       O  0.15708375  0.16328247  0.28350379    -0.72660
O1332       O  0.17564051  0.12082625  0.31148662    -0.84790
Zr1333     Zr  0.16775659  0.10685842  0.20217429     2.26420
Zr1334     Zr  0.13035174  0.16803646  0.23319944     2.06270
Zr1335     Zr  0.16848714  0.07662211  0.28920128     2.10050
Zr1336     Zr  0.09795415  0.09646775  0.25039641     1.78760
O1337       O  0.21189090  0.06687382  0.31518232    -0.93600
O1338       O  0.06125713  0.11601303  0.21791381    -0.41400
O1339       O  0.14209338  0.07912537  0.23963795    -0.78040
O1340       O  0.12294561  0.12298381  0.21241572    -0.96720
O1341       O  0.17492146  0.15166269  0.22192926    -0.90030
O1342       O  0.19439346  0.10268280  0.25134115    -0.92870
C1343       C  0.06163356  0.12106889  0.31790351     1.00880
C1344       C  0.14297881  0.07749675  0.36899373     1.13810
C1345       C  0.11651724  0.20416964  0.30637194     1.04590
O1346       O  0.08777298  0.18944408  0.21858723    -0.95020
O1347       O  0.12258057  0.16339260  0.17214623    -0.90770
O1348       O  0.15866535  0.13848498  0.15714154    -0.83910
C1349       C  0.13587494  0.14950043  0.15028399     1.11230
O1350       O  0.21586173  0.17636185  0.31728019    -0.97000
Zr1351     Zr  0.20151948  0.14688588  0.27126822     1.88940
O1352       O  0.21344517  0.11703609  0.18382168    -0.73650
O1353       O  0.15616700  0.20665675  0.21273635    -0.52910
O1354       O  0.21419892  0.19160715  0.25133350    -0.97590
O1355       O  0.24037131  0.12872722  0.30103266    -0.54810
O1356       O  0.23557051  0.13706928  0.22757478    -0.74160
C1357       C  0.23487785  0.12693636  0.19773718     0.98180
O1358       O  0.14720938  0.07546017  0.16202420    -0.62980
O1359       O  0.15262179  0.03006460  0.29452135    -0.57790
O1360       O  0.19100978  0.06483630  0.19630918    -0.94470
O1361       O  0.18718462  0.04664544  0.24844415    -0.92900
O1362       O  0.08058593  0.05311947  0.26969814    -0.93250
O1363       O  0.08405021  0.06521897  0.20599854    -0.92040
C1364       C  0.19311363  0.04567537  0.21733005     1.17020
H1365       H  0.11363599  0.08024778  0.31426513     0.32970
H1366       H  0.11191268  0.12139010  0.19259145     0.43820
H1367       H  0.21149076  0.09400279  0.24698167     0.37340
H1368       H  0.16101048  0.18070384  0.29334586     0.33820
H1369       H  0.04518977  0.10457551  0.22284606     0.25610
H1370       H  0.14223799  0.21923038  0.20449307     0.31550
H1371       H  0.23384167  0.19048845  0.24642185     0.37460
H1372       H  0.09596263  0.04060613  0.26690158     0.31920
H1373       H  0.16527089  0.02165328  0.31051169     0.30800
H1374       H  0.21295690  0.04692931  0.31486641     0.32480
H1375       H  0.25625969  0.13868408  0.29205206     0.31440
H1376       H  0.08352003  0.07608873  0.18533059     0.35440
H1377       H  0.14634830  0.05766682  0.17291550     0.28180
H1378       H  0.12735484  0.16172969  0.38639842     0.32410
H1379       H  0.23454499  0.18233963  0.31174554     0.35260
H1380       H  0.13520062  0.03116840  0.30675977     0.27870
H1381       H  0.12795058  0.08081787  0.16157488     0.40740
H1382       H  0.07464328  0.18289816  0.23550993     0.30800
H1383       H  0.05743424  0.13345239  0.22912247     0.38410
H1384       H  0.24242521  0.11015262  0.29217393     0.30260
H1385       H  0.16347992  0.21550840  0.23317458     0.30330
H1386       H  0.15584673  0.16957653  0.37161359     0.30590
Zr1387     Zr  0.13194054  0.84446671  0.10864682     2.17510
O1388       O  0.14612672  0.82612026  0.05477132    -0.51760
O1389       O  0.08386736  0.84943642  0.09696040    -0.74970
O1390       O  0.11638316  0.79785440  0.10508138    -0.81750
O1391       O  0.16921538  0.90299363  0.07727738    -0.83500
O1392       O  0.11466453  0.78039602  0.15759968    -0.79120
O1393       O  0.13086856  0.88022473  0.06525324    -0.90760
O1394       O  0.06614033  0.87488154  0.13913212    -0.76720
O1395       O  0.10541740  0.84220621  0.15867322    -0.86210
O1396       O  0.12806364  0.88960603  0.12875586    -0.85900
O1397       O  0.15684314  0.81687324  0.14798306    -0.72660
O1398       O  0.17855638  0.85775142  0.11869411    -0.84790
Zr1399     Zr  0.17102938  0.87581485  0.22634227     2.26420
Zr1400     Zr  0.12951376  0.81498563  0.19795710     2.06270
Zr1401     Zr  0.17389032  0.90328638  0.13763066     2.10050
Zr1402     Zr  0.10173611  0.88763214  0.17774491     1.78760
O1403       O  0.21137422  0.92331974  0.10644788    -0.93600
O1404       O  0.06422631  0.87319189  0.21334148    -0.41400
O1405       O  0.14710716  0.90372936  0.18764356    -0.78040
O1406       O  0.12526979  0.86109600  0.21658121    -0.96720
O1407       O  0.17504785  0.82986833  0.20947948    -0.90030
O1408       O  0.19778573  0.87633862  0.17689844    -0.92870
C1409       C  0.06419292  0.86134806  0.11181768     1.00880
C1410       C  0.14720276  0.90038120  0.06054514     1.13810
C1411       C  0.11239411  0.77827185  0.12551583     1.04590
O1412       O  0.08557329  0.79636941  0.21411419    -0.95020
O1413       O  0.12239663  0.82182180  0.25855920    -0.90770
O1414       O  0.16061087  0.84465493  0.27157160    -0.83910
C1415       C  0.13716185  0.83528377  0.27958618     1.11230
O1416       O  0.21481506  0.79813736  0.11791555    -0.97000
Zr1417     Zr  0.20231126  0.83133538  0.16041925     1.88940
O1418       O  0.21746918  0.86877371  0.24313148    -0.73650
O1419       O  0.15225516  0.77531781  0.21937077    -0.52910
O1420       O  0.21212101  0.78780491  0.18536894    -0.97590
O1421       O  0.24143974  0.84574288  0.12753996    -0.54810
O1422       O  0.23767648  0.84312819  0.20286778    -0.74160
C1423       C  0.23832826  0.85753922  0.23003153     0.98180
O1424       O  0.15554845  0.90358113  0.27320172    -0.62980
O1425       O  0.15207041  0.94720332  0.13681886    -0.57790
O1426       O  0.19007748  0.92085153  0.22466222    -0.94470
O1427       O  0.20628670  0.92676496  0.17215654    -0.92900
O1428       O  0.08723383  0.93052030  0.15471811    -0.93250
O1429       O  0.09096869  0.92113492  0.22054446    -0.92040
C1430       C  0.20163437  0.93485984  0.20182876     1.17020
H1431       H  0.11853642  0.90185689  0.11439024     0.32970
H1432       H  0.11450301  0.86368053  0.23645043     0.43820
H1433       H  0.21594065  0.88305284  0.18057997     0.37340
H1434       H  0.15929076  0.79900094  0.13882539     0.33820
H1435       H  0.04823267  0.88279931  0.20460735     0.25610
H1436       H  0.13741657  0.76392028  0.22844952     0.31550
H1437       H  0.23177284  0.78851766  0.19044448     0.37460
H1438       H  0.06716862  0.92975797  0.15559701     0.31920
H1439       H  0.16709299  0.96044676  0.13439750     0.30800
H1440       H  0.20736983  0.94283996  0.10552481     0.32480
H1441       H  0.25741801  0.83946889  0.14019151     0.31440
H1442       H  0.09843642  0.91378515  0.24154034     0.35440
H1443       H  0.15390729  0.92226084  0.26492419     0.28180
H1444       H  0.12907723  0.82035325  0.04360812     0.32410
H1445       H  0.23331935  0.79226184  0.12389557     0.35260
H1446       H  0.14241737  0.94772210  0.11511716     0.27870
H1447       H  0.13643439  0.89787025  0.27627470     0.40740
H1448       H  0.07273358  0.80341576  0.19733174     0.30800
H1449       H  0.06096293  0.85406081  0.20708483     0.38410
H1450       H  0.24200020  0.86564106  0.12998171     0.30260
H1451       H  0.15842241  0.76550262  0.19911812     0.30330
H1452       H  0.15548809  0.80910689  0.06014144     0.30590
Zr1453     Zr  0.10237832  0.10231998  0.86586753     2.17510
O1454       O  0.08646388  0.08603443  0.81157381    -0.51760
O1455       O  0.10704014  0.15025926  0.85271564    -0.74970
O1456       O  0.05494945  0.11497194  0.85876071    -0.81750
O1457       O  0.17283710  0.07631041  0.84396267    -0.83500
O1458       O  0.03539560  0.11679137  0.91029943    -0.79120
O1459       O  0.13909772  0.10205093  0.82278906    -0.90760
O1460       O  0.13268571  0.16853485  0.89434023    -0.76720
O1461       O  0.09639082  0.12937614  0.91512977    -0.86210
O1462       O  0.14617611  0.10922828  0.88928079    -0.85900
O1463       O  0.07394885  0.07616700  0.90364334    -0.72660
O1464       O  0.11762284  0.05722097  0.87811807    -0.84790
Zr1465     Zr  0.12881972  0.06717505  0.98739854     2.26420
Zr1466     Zr  0.06821948  0.10403419  0.95283283     2.06270
Zr1467     Zr  0.16174641  0.06496232  0.90097089     2.10050
Zr1468     Zr  0.14070950  0.13604068  0.93749321     1.78760
O1469       O  0.17403223  0.02468922  0.86942508    -0.93600
O1470       O  0.12128978  0.17469589  0.96659084    -0.41400
O1471       O  0.15778967  0.09235053  0.95030105    -0.78040
O1472       O  0.11316866  0.11169442  0.97507395    -0.96720
O1473       O  0.08420477  0.05978788  0.96646585    -0.90030
O1474       O  0.13406506  0.03991806  0.93860637    -0.92870
C1475       C  0.11987510  0.17011590  0.86660444     1.00880
C1476       C  0.16284329  0.09112240  0.82097165     1.13810
C1477       C  0.03440342  0.11850650  0.87818080     1.04590
O1478       O  0.04411962  0.14518625  0.96711459    -0.95020
O1479       O  0.07098404  0.11471774  0.01289572    -0.90770
O1480       O  0.09279719  0.07734157  0.02755310    -0.83910
C1481       C  0.08349284  0.10074141  0.03488801     1.11230
O1482       O  0.05916493  0.01697841  0.87414038    -0.97000
Zr1483     Zr  0.09021296  0.03211861  0.91809034     1.88940
O1484       O  0.12412437  0.01995431  0.00252532    -0.73650
O1485       O  0.02960159  0.07719048  0.97163923    -0.52910
O1486       O  0.04650662  0.01880562  0.94149894    -0.97590
O1487       O  0.10822999  0.99449874  0.88563182    -0.54810
O1488       O  0.10281719  0.99747502  0.96014066    -0.74160
C1489       C  0.11570220  0.99803084  0.98837808     0.98180
O1490       O  0.15083259  0.07903106  0.04019999    -0.62980
O1491       O  0.20814105  0.08232823  0.90328407    -0.57790
O1492       O  0.17642694  0.05716671  0.99028063    -0.94470
O1493       O  0.18621382  0.03799169  0.94027184    -0.92900
O1494       O  0.18631908  0.14996518  0.92116185    -0.93250
O1495       O  0.16802505  0.15157298  0.98478051    -0.92040
C1496       C  0.19244832  0.04534218  0.96990467     1.17020
H1497       H  0.15843322  0.11918196  0.87503916     0.32970
H1498       H  0.11446600  0.12307528  0.99468779     0.43820
H1499       H  0.14232623  0.02273718  0.94270126     0.37340
H1500       H  0.05658226  0.07255321  0.89333991     0.33820
H1501       H  0.13180935  0.19046679  0.95845786     0.25610
H1502       H  0.01741935  0.09041743  0.98244544     0.31550
H1503       H  0.04822885  0.99931798  0.94626416     0.37460
H1504       H  0.18598760  0.16994158  0.92164728     0.31920
H1505       H  0.21860733  0.07017358  0.88846733     0.30800
H1506       H  0.19411529  0.02465874  0.86969354     0.32480
H1507       H  0.10049959  0.97812612  0.89619591     0.31440
H1508       H  0.16859248  0.13591565  0.99999601     0.35440
H1509       H  0.15968213  0.06248558  0.04839622     0.28180
H1510       H  0.08010667  0.10233265  0.79986710     0.32410
H1511       H  0.05385607  0.99828468  0.88005288     0.35260
H1512       H  0.20766039  0.09968700  0.89120511     0.27870
H1513       H  0.16580261  0.09173229  0.03476163     0.40740
H1514       H  0.05354807  0.15952494  0.95433911     0.30800
H1515       H  0.10308955  0.17677221  0.95653025     0.38410
H1516       H  0.12775085  0.99410815  0.89138535     0.30260
H1517       H  0.02006708  0.07180388  0.95078407     0.30330
H1518       H  0.06977705  0.07548704  0.81644081     0.30590
Zr1519     Zr  0.38659541  0.10789066  0.06792744     2.17510
O1520       O  0.40037387  0.09131010  0.12249764    -0.51760
O1521       O  0.38543069  0.15584191  0.08074823    -0.74970
O1522       O  0.43456028  0.11814306  0.07540764    -0.81750
O1523       O  0.31345978  0.09152599  0.08565516    -0.83500
O1524       O  0.45538444  0.11889276  0.02433128    -0.79120
O1525       O  0.35012823  0.11093642  0.11089147    -0.90760
O1526       O  0.36585875  0.17608738  0.03619486    -0.76720
O1527       O  0.39611303  0.13344056  0.01851734    -0.86210
O1528       O  0.34405407  0.11761662  0.04336331    -0.85900
O1529       O  0.41384803  0.08007234  0.03102085    -0.72660
O1530       O  0.36716378  0.06382840  0.05674275    -0.84790
Zr1531     Zr  0.36057690  0.07118203  0.94505658     2.26420
Zr1532     Zr  0.42271366  0.10614176  0.98114670     2.06270
Zr1533     Zr  0.32496032  0.07419188  0.03095557     2.10050
Zr1534     Zr  0.35317724  0.14268234  0.99471724     1.78760
O1535       O  0.30850093  0.02887218  0.04344782    -0.93600
O1536       O  0.37573666  0.17808567  0.96273606    -0.41400
O1537       O  0.33368240  0.09974161  0.98182826    -0.78040
O1538       O  0.37890005  0.11541530  0.95779603    -0.96720
O1539       O  0.40365248  0.06237960  0.96913204    -0.90030
O1540       O  0.35116032  0.04595387  0.99523988    -0.92870
C1541       C  0.37702844  0.17669733  0.06511923     1.00880
C1542       C  0.32465487  0.10443338  0.10994951     1.13810
C1543       C  0.45555264  0.12065127  0.05647823     1.04590
O1544       O  0.44856719  0.14648275  0.96651484    -0.95020
O1545       O  0.42118816  0.11459354  0.92006755    -0.90770
O1546       O  0.39803217  0.07733174  0.90607385    -0.83910
C1547       C  0.40780003  0.10048633  0.89833582     1.11230
O1548       O  0.42052931  0.02274285  0.06654877    -0.97000
Zr1549     Zr  0.39399667  0.03691738  0.01835921     1.88940
O1550       O  0.36843442  0.02423170  0.92901362    -0.73650
O1551       O  0.46041242  0.07776850  0.96433713    -0.52910
O1552       O  0.43844357  0.02105878  0.00081776    -0.97590
O1553       O  0.37241882  0.99938063  0.04756286    -0.54810
O1554       O  0.38380198  0.00261062  0.97528939    -0.74160
C1555       C  0.37569816  0.00281867  0.94465702     0.98180
O1556       O  0.33433682  0.09428254  0.90205224    -0.62980
O1557       O  0.27586650  0.07652481  0.03737710    -0.57790
O1558       O  0.31761719  0.04978747  0.93382449    -0.94470
O1559       O  0.31424400  0.07984649  0.97299378    -0.92900
O1560       O  0.30955825  0.16056950  0.01242400    -0.93250
O1561       O  0.32366039  0.15827162  0.95006168    -0.92040
C1562       C  0.30317130  0.06112831  0.95579829     1.17020
H1563       H  0.33280692  0.12931983  0.05669680     0.32970
H1564       H  0.37894597  0.12648330  0.93808688     0.43820
H1565       H  0.34126525  0.02946648  0.99035516     0.37340
H1566       H  0.43074308  0.07566057  0.04174354     0.33820
H1567       H  0.36554199  0.19467969  0.96810271     0.25610
H1568       H  0.47412759  0.09057348  0.95545612     0.31550
H1569       H  0.43612182  0.00134000  0.99755726     0.37460
H1570       H  0.31281817  0.18017322  0.01562746     0.31920
H1571       H  0.27156072  0.06769208  0.05890183     0.30800
H1572       H  0.30989663  0.02756101  0.06810228     0.32480
H1573       H  0.38208056  0.98312806  0.03959460     0.31440
H1574       H  0.33444562  0.15655430  0.92927480     0.35440
H1575       H  0.31525149  0.09571816  0.90935273     0.28180
H1576       H  0.41022324  0.10657569  0.13325651     0.32410
H1577       H  0.42587773  0.00389059  0.06179234     0.35260
H1578       H  0.27209105  0.09588731  0.04128472     0.27870
H1579       H  0.34090452  0.11317745  0.90347054     0.40740
H1580       H  0.44085356  0.16096987  0.98070155     0.30800
H1581       H  0.39349111  0.18075347  0.97390757     0.38410
H1582       H  0.35414581  0.99767289  0.03747247     0.30260
H1583       H  0.46824003  0.07144944  0.98567514     0.30330
H1584       H  0.41443676  0.07772419  0.11758677     0.30590
Zr1585     Zr  0.13249140  0.41825478  0.48121122     2.17510
O1586       O  0.15260594  0.41974693  0.53699313    -0.51760
O1587       O  0.11900923  0.46340014  0.49865760    -0.74970
O1588       O  0.17841618  0.43668489  0.47913441    -0.81750
O1589       O  0.07762812  0.36662468  0.50759831    -0.83500
O1590       O  0.18243421  0.45233530  0.42666828    -0.79120
O1591       O  0.11401573  0.39092881  0.52657341    -0.90760
O1592       O  0.10758554  0.48518405  0.45102699    -0.76720
O1593       O  0.13693886  0.44322163  0.43115716    -0.86210
O1594       O  0.08738329  0.42558422  0.46186941    -0.85900
O1595       O  0.16042666  0.39068332  0.44515812    -0.72660
O1596       O  0.11447809  0.37435860  0.46935338    -0.84790
Zr1597     Zr  0.10131866  0.37862397  0.36204856     2.26420
Zr1598     Zr  0.16316666  0.41603887  0.39431230     2.06270
Zr1599     Zr  0.06954830  0.38124510  0.45012250     2.10050
Zr1600     Zr  0.09280368  0.45010938  0.41095224     1.78760
O1601       O  0.04154856  0.34305703  0.46746254    -0.93600
O1602       O  0.11095231  0.48671471  0.37701929    -0.41400
O1603       O  0.07428941  0.40601261  0.39923130    -0.78040
O1604       O  0.11903548  0.42355378  0.37157878    -0.96720
O1605       O  0.14527443  0.37220505  0.38366637    -0.90030
O1606       O  0.09564755  0.35393271  0.41274127    -0.92870
C1607       C  0.11447922  0.48497299  0.48208598     1.00880
C1608       C  0.09512688  0.37309153  0.53021106     1.13810
C1609       C  0.19071479  0.45069152  0.45676271     1.04590
O1610       O  0.18117700  0.44957450  0.35581822    -0.95020
O1611       O  0.17399430  0.39830363  0.33980356    -0.90770
O1612       O  0.13778630  0.37431856  0.31970590    -0.83910
C1613       C  0.16260174  0.38284927  0.31805141     1.11230
O1614       O  0.16758001  0.33143044  0.47991680    -0.97000
Zr1615     Zr  0.14051512  0.34691280  0.43289770     1.88940
O1616       O  0.10349557  0.33038057  0.35048837    -0.73650
O1617       O  0.20855380  0.39808229  0.40279235    -0.52910
O1618       O  0.18563047  0.33369774  0.41451464    -0.97590
O1619       O  0.11867357  0.30970638  0.46247660    -0.54810
O1620       O  0.13229717  0.31328510  0.38927406    -0.74160
C1621       C  0.11719656  0.31109996  0.36321977     0.98180
O1622       O  0.08389839  0.39379151  0.30837708    -0.62980
O1623       O  0.03316310  0.40923554  0.47204983    -0.57790
O1624       O  0.05392384  0.36593658  0.35716822    -0.94470
O1625       O  0.03570478  0.36681276  0.40936252    -0.92900
O1626       O  0.04939645  0.46545915  0.43262593    -0.93250
O1627       O  0.06189930  0.46460724  0.36728161    -0.92040
C1628       C  0.03395940  0.36319101  0.37755123     1.17020
H1629       H  0.07683848  0.43526640  0.47832515     0.32970
H1630       H  0.12058211  0.43293441  0.35054496     0.43820
H1631       H  0.08604350  0.33705268  0.40931059     0.37340
H1632       H  0.17811075  0.38828552  0.45503092     0.33820
H1633       H  0.10185627  0.50312265  0.38552261     0.25610
H1634       H  0.21901300  0.40393201  0.38293065     0.31550
H1635       H  0.18446294  0.31388958  0.41124647     0.37460
H1636       H  0.05215526  0.48496837  0.43716537     0.31920
H1637       H  0.01669864  0.40288985  0.46004505     0.30800
H1638       H  0.02513774  0.35120049  0.47743943     0.32480
H1639       H  0.11708656  0.29473390  0.44603303     0.31440
H1640       H  0.06473077  0.45157938  0.34872175     0.35440
H1641       H  0.06829355  0.40534243  0.31419266     0.28180
H1642       H  0.15851914  0.43871606  0.54052162     0.32410
H1643       H  0.17160255  0.31227274  0.47494319     0.35260
H1644       H  0.03055031  0.40304306  0.49534326     0.27870
H1645       H  0.09779551  0.40660686  0.29995120     0.40740
H1646       H  0.16581751  0.46179029  0.35158102     0.30800
H1647       H  0.13001546  0.48882858  0.38446706     0.38410
H1648       H  0.09978693  0.31565855  0.46614371     0.30260
H1649       H  0.21651701  0.40850819  0.42165091     0.30330
H1650       H  0.16964106  0.40942536  0.53507532     0.30590
Zr1651     Zr  0.35537935  0.41852157  0.46024793     2.17510
O1652       O  0.32555126  0.40527877  0.41420681    -0.51760
O1653       O  0.36336576  0.46483414  0.44351318    -0.74970
O1654       O  0.31125550  0.43951888  0.46415555    -0.81750
O1655       O  0.40531476  0.36947115  0.42622847    -0.83500
O1656       O  0.30754296  0.45262542  0.51810414    -0.79120
O1657       O  0.38311399  0.40707760  0.41222653    -0.90760
O1658       O  0.38886107  0.48549872  0.48386743    -0.76720
O1659       O  0.35476361  0.44456270  0.51012841    -0.86210
O1660       O  0.40174117  0.42530084  0.47534895    -0.85900
O1661       O  0.32938762  0.39138903  0.49840333    -0.72660
O1662       O  0.37288720  0.37407900  0.46792045    -0.84790
Zr1663     Zr  0.39122795  0.37955892  0.57502826     2.26420
Zr1664     Zr  0.32984937  0.41783299  0.54876606     2.06270
Zr1665     Zr  0.41901715  0.38079399  0.48408230     2.10050
Zr1666     Zr  0.40034854  0.45091235  0.52588423     1.78760
O1667       O  0.44208350  0.33969543  0.46704122    -0.93600
O1668       O  0.38400452  0.48899152  0.55879311    -0.41400
O1669       O  0.41670546  0.40617327  0.53525859    -0.78040
O1670       O  0.37539884  0.42504198  0.56739489    -0.96720
O1671       O  0.34604749  0.37336609  0.55695242    -0.90030
O1672       O  0.39448645  0.35426699  0.52389501    -0.92870
C1673       C  0.37503934  0.48573123  0.45642258     1.00880
C1674       C  0.39237278  0.38373854  0.40478059     1.13810
C1675       C  0.29900300  0.45188479  0.48799952     1.04590
O1676       O  0.30877708  0.45144708  0.58477889    -0.95020
O1677       O  0.32788612  0.41028313  0.60805109    -0.90770
O1678       O  0.35380910  0.37383673  0.61630217    -0.83910
C1679       C  0.33340164  0.38881169  0.62399631     1.11230
O1680       O  0.31650358  0.33388472  0.46350447    -0.97000
Zr1681     Zr  0.34853957  0.34739920  0.50718616     1.88940
O1682       O  0.38904682  0.33153810  0.58693352    -0.73650
O1683       O  0.28538737  0.39592124  0.54689182    -0.52910
O1684       O  0.30602411  0.33179944  0.53180493    -0.97590
O1685       O  0.36563334  0.31132709  0.47134213    -0.54810
O1686       O  0.36176083  0.31289184  0.54688397    -0.74160
C1687       C  0.37656453  0.31140531  0.57326661     0.98180
O1688       O  0.40961265  0.39360720  0.62910315    -0.62980
O1689       O  0.45551822  0.40592061  0.45694013    -0.57790
O1690       O  0.43960876  0.37148395  0.57656290    -0.94470
O1691       O  0.45582704  0.37051838  0.52295004    -0.92900
O1692       O  0.44490027  0.46315004  0.50407897    -0.93250
O1693       O  0.43241153  0.46509927  0.56904744    -0.92040
C1694       C  0.45879828  0.36937450  0.55493261     1.17020
H1695       H  0.41156330  0.43482495  0.45808363     0.32970
H1696       H  0.37551938  0.43462591  0.58855118     0.43820
H1697       H  0.40413436  0.33756026  0.52651397     0.37340
H1698       H  0.31108468  0.38928819  0.49009216     0.33820
H1699       H  0.39313157  0.50499405  0.54903854     0.25610
H1700       H  0.27796248  0.39843843  0.56971960     0.31550
H1701       H  0.30762730  0.31191971  0.53285304     0.37460
H1702       H  0.44397841  0.48282299  0.50013294     0.31920
H1703       H  0.47238689  0.39749091  0.46504006     0.30800
H1704       H  0.45653128  0.34585423  0.45158196     0.32480
H1705       H  0.36100505  0.29441501  0.48318536     0.31440
H1706       H  0.43355007  0.44940713  0.58415367     0.35440
H1707       H  0.42248828  0.40841365  0.62376001     0.28180
H1708       H  0.31798416  0.42223619  0.40537109     0.32410
H1709       H  0.31176373  0.31479465  0.46806812     0.35260
H1710       H  0.45434306  0.40052980  0.43306389     0.27870
H1711       H  0.39447953  0.40276817  0.64067133     0.40740
H1712       H  0.32250271  0.46610531  0.58672143     0.30800
H1713       H  0.36474221  0.49076725  0.55223231     0.38410
H1714       H  0.38562414  0.31284511  0.47305629     0.30260
H1715       H  0.27418150  0.40765457  0.53262642     0.30330
H1716       H  0.30998240  0.39585915  0.42475704     0.30590
Zr1717     Zr  0.31994264  0.60603943  0.20278478     2.17510
O1718       O  0.33193962  0.58419404  0.14970544    -0.51760
O1719       O  0.27346288  0.61457177  0.18787120    -0.74970
O1720       O  0.30237375  0.56077941  0.19894193    -0.81750
O1721       O  0.36712264  0.65997064  0.17690286    -0.83500
O1722       O  0.28670469  0.55474565  0.25116556    -0.79120
O1723       O  0.32943035  0.63839093  0.15931364    -0.90760
O1724       O  0.25157922  0.63302526  0.23240941    -0.76720
O1725       O  0.29447343  0.59903897  0.25243188    -0.86210
O1726       O  0.31123908  0.64963282  0.22534741    -0.85900
O1727       O  0.34822132  0.57794329  0.23702988    -0.72660
O1728       O  0.36423380  0.62443165  0.21285357    -0.84790
Zr1729     Zr  0.35883678  0.63368329  0.32216441     2.26420
Zr1730     Zr  0.32230106  0.57212964  0.28731853     2.06270
Zr1731     Zr  0.35551741  0.66796396  0.23577459     2.10050
Zr1732     Zr  0.28642325  0.64196370  0.27559836     1.78760
O1733       O  0.39486195  0.69541399  0.22077227    -0.93600
O1734       O  0.24943326  0.61960351  0.30522063    -0.41400
O1735       O  0.33064859  0.66078081  0.28663585    -0.78040
O1736       O  0.31398260  0.61515579  0.31269924    -0.96720
O1737       O  0.36624962  0.59065530  0.29802069    -0.90030
O1738       O  0.38348384  0.64185760  0.27165363    -0.92870
C1739       C  0.25215117  0.62373524  0.20218359     1.00880
C1740       C  0.35244310  0.64950703  0.15352335     1.13810
C1741       C  0.29093775  0.54637953  0.22136397     1.04590
O1742       O  0.28834722  0.55086734  0.32293811    -0.95020
O1743       O  0.33745187  0.56165936  0.34337138    -0.90770
O1744       O  0.36338395  0.59658996  0.36298728    -0.83910
C1745       C  0.35319341  0.57254412  0.36534262     1.11230
O1746       O  0.40552656  0.56963802  0.20190897    -0.97000
Zr1747     Zr  0.39177973  0.59818310  0.24883187     1.88940
O1748       O  0.40724218  0.63198149  0.33350683    -0.73650
O1749       O  0.34025565  0.52739666  0.27563063    -0.52910
O1750       O  0.40860679  0.55522936  0.26912331    -0.97590
O1751       O  0.42713419  0.61899771  0.21473984    -0.54810
O1752       O  0.42666431  0.61028272  0.28943931    -0.74160
C1753       C  0.42789402  0.62257172  0.31783805     0.98180
O1754       O  0.34388946  0.64933945  0.37709119    -0.62980
O1755       O  0.32821524  0.70473928  0.21435494    -0.57790
O1756       O  0.36903339  0.68159620  0.32916339    -0.94470
O1757       O  0.36747999  0.70128657  0.27798364    -0.92900
O1758       O  0.27134123  0.68711623  0.26150400    -0.93250
O1759       O  0.27154763  0.66804117  0.32398943    -0.92040
C1760       C  0.37068506  0.70223048  0.30983300     1.17020
H1761       H  0.30105102  0.66043015  0.20984114     0.32970
H1762       H  0.30476697  0.61274690  0.33382655     0.43820
H1763       H  0.39997641  0.65210751  0.27540045     0.37340
H1764       H  0.35093707  0.56074937  0.22603949     0.33820
H1765       H  0.23293085  0.62931710  0.29828759     0.25610
H1766       H  0.35511910  0.52521282  0.29201721     0.31550
H1767       H  0.42855841  0.55757054  0.27021034     0.37460
H1768       H  0.25143187  0.68532962  0.25887918     0.31920
H1769       H  0.33553575  0.72114854  0.22556221     0.30800
H1770       H  0.38733054  0.71092081  0.20850364     0.32480
H1771       H  0.44434577  0.61167497  0.22340313     0.31440
H1772       H  0.28582088  0.66523901  0.34100208     0.35440
H1773       H  0.33232143  0.66510306  0.37250880     0.28180
H1774       H  0.33695867  0.56546229  0.15525918     0.32410
H1775       H  0.42469123  0.56498556  0.20620817     0.35260
H1776       H  0.33385673  0.70656685  0.19068762     0.27870
H1777       H  0.33097778  0.63530778  0.38490427     0.40740
H1778       H  0.27596604  0.56567328  0.32921375     0.30800
H1779       H  0.24771314  0.60165846  0.29430077     0.38410
H1780       H  0.42741821  0.63820643  0.22175785     0.30260
H1781       H  0.32586223  0.51476399  0.28319375     0.30330
H1782       H  0.34943773  0.59248149  0.14298906     0.30590
Zr1783     Zr  0.32080191  0.38075601  0.23145192     2.17510
O1784       O  0.34370775  0.40960210  0.27274302    -0.51760
O1785       O  0.27393788  0.37177236  0.24653555    -0.74970
O1786       O  0.29575945  0.42066806  0.24816511    -0.81750
O1787       O  0.36496755  0.32554930  0.25910787    -0.83500
O1788       O  0.30803671  0.41857535  0.19757443    -0.79120
O1789       O  0.32685039  0.34634873  0.27335824    -0.90760
O1790       O  0.25201760  0.35597464  0.20015234    -0.76720
O1791       O  0.29786092  0.38900548  0.17908062    -0.86210
O1792       O  0.30966190  0.33740020  0.20884364    -0.85900
O1793       O  0.35203355  0.40616339  0.19513670    -0.72660
O1794       O  0.36397157  0.35988067  0.22204644    -0.84790
Zr1795     Zr  0.35894656  0.34946935  0.11181198     2.26420
Zr1796     Zr  0.32823821  0.41373551  0.14364396     2.06270
Zr1797     Zr  0.35263775  0.31648413  0.20001479     2.10050
Zr1798     Zr  0.28649933  0.34593492  0.15760628     1.78760
O1799       O  0.38767765  0.28588435  0.21903150    -0.93600
O1800       O  0.25083121  0.36971918  0.12812473    -0.41400
O1801       O  0.32907873  0.32423723  0.14815525    -0.78040
O1802       O  0.31573501  0.37065253  0.11979047    -0.96720
O1803       O  0.37070659  0.39233336  0.13459928    -0.90030
O1804       O  0.38237754  0.34042687  0.16302513    -0.92870
C1805       C  0.25246603  0.36394045  0.23088205     1.00880
C1806       C  0.35023676  0.33757248  0.28109549     1.13810
C1807       C  0.29823047  0.43292906  0.22082692     1.04590
O1808       O  0.29510501  0.44792759  0.12953977    -0.95020
O1809       O  0.32881945  0.41395989  0.08331242    -0.90770
O1810       O  0.36305937  0.38610104  0.06975459    -0.83910
C1811       C  0.34820855  0.40690210  0.06394043     1.11230
O1812       O  0.41005306  0.41105406  0.23227070    -0.97000
Zr1813     Zr  0.39402492  0.38349342  0.18528174     1.88940
O1814       O  0.40705653  0.35021750  0.09994104    -0.73650
O1815       O  0.35698612  0.45364213  0.13632675    -0.52910
O1816       O  0.41577826  0.42543620  0.16773847    -0.97590
O1817       O  0.42678819  0.35919647  0.21907654    -0.54810
O1818       O  0.42799388  0.37001337  0.14457634    -0.74160
C1819       C  0.42826380  0.35849887  0.11567555     0.98180
O1820       O  0.34375526  0.33169447  0.05783146    -0.62980
O1821       O  0.32115164  0.28164474  0.21913951    -0.57790
O1822       O  0.36883632  0.30169400  0.10702337    -0.94470
O1823       O  0.36633580  0.28316599  0.15885276    -0.92900
O1824       O  0.26811744  0.30148459  0.17089510    -0.93250
O1825       O  0.27030979  0.32062187  0.10898043    -0.92040
C1826       C  0.37036590  0.28162392  0.12716821     1.17020
H1827       H  0.29830754  0.32714172  0.22390919     0.32970
H1828       H  0.30638090  0.37229862  0.09867814     0.43820
H1829       H  0.39823310  0.32951190  0.15937373     0.37340
H1830       H  0.35721652  0.42292217  0.20579851     0.33820
H1831       H  0.23372554  0.36099131  0.13554284     0.25610
H1832       H  0.34526637  0.46948044  0.14001224     0.31550
H1833       H  0.43538052  0.42135999  0.16666691     0.37460
H1834       H  0.24835359  0.30423229  0.17339178     0.31920
H1835       H  0.32769598  0.26477324  0.20859825     0.30800
H1836       H  0.37787385  0.27190987  0.23199953     0.32480
H1837       H  0.44443941  0.36198328  0.20773116     0.31440
H1838       H  0.28583046  0.32074604  0.09326064     0.35440
H1839       H  0.33200080  0.31601754  0.06329465     0.28180
H1840       H  0.34497469  0.42789345  0.26306461     0.32410
H1841       H  0.43006539  0.41174680  0.23022770     0.35260
H1842       H  0.32529803  0.27961501  0.24323380     0.27870
H1843       H  0.33101231  0.34532369  0.04926710     0.40740
H1844       H  0.27856386  0.44257843  0.14199411     0.30800
H1845       H  0.25055173  0.38789248  0.13860120     0.38410
H1846       H  0.42238961  0.33986953  0.21531754     0.30260
H1847       H  0.37011531  0.45372089  0.15503775     0.30330
H1848       H  0.36268573  0.40326234  0.27255806     0.30590
Zr1849     Zr  0.13076457  0.56463128  0.94997880     2.17510
O1850       O  0.15149030  0.57016478  0.89498249    -0.51760
O1851       O  0.12248687  0.51781163  0.93485469    -0.74970
O1852       O  0.17657650  0.54705737  0.94955257    -0.81750
O1853       O  0.07822652  0.61507239  0.92638621    -0.83500
O1854       O  0.18086436  0.53091181  0.00167816    -0.79120
O1855       O  0.10590579  0.58370614  0.90322797    -0.90760
O1856       O  0.10533796  0.49575146  0.97995270    -0.76720
O1857       O  0.13606523  0.53931587  0.99947500    -0.86210
O1858       O  0.08619450  0.55540187  0.97045612    -0.85900
O1859       O  0.15893795  0.59301001  0.98529368    -0.72660
O1860       O  0.11244301  0.60797952  0.96217511    -0.84790
Zr1861     Zr  0.10189087  0.60215613  0.07024329     2.26420
Zr1862     Zr  0.16312253  0.56693605  0.03537820     2.06270
Zr1863     Zr  0.06816385  0.59912650  0.98297327     2.10050
Zr1864     Zr  0.09248455  0.53073420  0.02096574     1.78760
O1865       O  0.03782344  0.63479924  0.96527363    -0.93600
O1866       O  0.11199641  0.49425808  0.05329673    -0.41400
O1867       O  0.07412807  0.57434555  0.03362381    -0.78040
O1868       O  0.11966002  0.55774674  0.05958310    -0.96720
O1869       O  0.14517046  0.61028406  0.04688349    -0.90030
O1870       O  0.09445639  0.62696219  0.02002208    -0.92870
C1871       C  0.11569334  0.49618485  0.95035555     1.00880
C1872       C  0.09141362  0.60503581  0.90153801     1.13810
C1873       C  0.18882362  0.53279034  0.97140017     1.04590
O1874       O  0.18129436  0.53433139  0.07448753    -0.95020
O1875       O  0.17552716  0.58671370  0.08856619    -0.90770
O1876       O  0.13892407  0.60720826  0.11186341    -0.83910
C1877       C  0.16424640  0.60074322  0.11168322     1.11230
O1878       O  0.16666376  0.65164079  0.95188494    -0.97000
Zr1879     Zr  0.13864001  0.63599369  0.99830461     1.88940
O1880       O  0.10430266  0.65021689  0.08303688    -0.73650
O1881       O  0.20928344  0.58196495  0.02321924    -0.52910
O1882       O  0.18230362  0.65203133  0.01949933    -0.97590
O1883       O  0.11781785  0.67121063  0.96498100    -0.54810
O1884       O  0.12668330  0.67004616  0.03984079    -0.74160
C1885       C  0.11417047  0.67095804  0.06805383     0.98180
O1886       O  0.08553632  0.58584533  0.12405225    -0.62980
O1887       O  0.03201791  0.56989243  0.96145322    -0.57790
O1888       O  0.05465220  0.61411920  0.07672208    -0.94470
O1889       O  0.03563706  0.61375443  0.02493043    -0.92900
O1890       O  0.04830580  0.51491613  0.00132884    -0.93250
O1891       O  0.06311727  0.51583206  0.06633381    -0.92040
C1892       C  0.03444498  0.61707078  0.05683897     1.17020
H1893       H  0.07570283  0.54538119  0.95406055     0.32970
H1894       H  0.12184041  0.54827281  0.08043916     0.43820
H1895       H  0.08439398  0.64330073  0.02391653     0.37340
H1896       H  0.17641829  0.59596522  0.97495116     0.33820
H1897       H  0.10219894  0.47779212  0.04563991     0.25610
H1898       H  0.21135413  0.59928821  0.03552087     0.31550
H1899       H  0.18024922  0.67178540  0.02221191     0.37460
H1900       H  0.05050941  0.49527111  0.99767932     0.31920
H1901       H  0.01530833  0.57666049  0.97224540     0.30800
H1902       H  0.02442823  0.62580667  0.95035175     0.32480
H1903       H  0.12218406  0.68830701  0.97688995     0.31440
H1904       H  0.06770427  0.52805779  0.08526650     0.35440
H1905       H  0.06956368  0.57439021  0.11850664     0.28180
H1906       H  0.15718002  0.55185348  0.88802052     0.32410
H1907       H  0.17179670  0.67050562  0.95754543     0.35260
H1908       H  0.03019460  0.57493427  0.93763036     0.27870
H1909       H  0.09940375  0.57289612  0.13152434     0.40740
H1910       H  0.16764864  0.51954829  0.07487412     0.30800
H1911       H  0.13056097  0.49223960  0.04422283     0.38410
H1912       H  0.09805956  0.66862921  0.96827300     0.30260
H1913       H  0.22097061  0.56924964  0.03545615     0.30330
H1914       H  0.16862036  0.58026496  0.89908767     0.30590
Zr1915     Zr  0.35404595  0.56283671  0.97547879     2.17510
O1916       O  0.33123163  0.56329446  0.02965249    -0.51760
O1917       O  0.36380880  0.51673178  0.99064373    -0.74970
O1918       O  0.30838332  0.54468638  0.97023421    -0.81750
O1919       O  0.40529403  0.61551389  0.00773682    -0.83500
O1920       O  0.30840925  0.52843038  0.91766289    -0.79120
O1921       O  0.37217137  0.58620157  0.02432819    -0.90760
O1922       O  0.38484683  0.49625247  0.94688538    -0.76720
O1923       O  0.35211055  0.53825901  0.92442387    -0.86210
O1924       O  0.40013748  0.55643102  0.95940507    -0.85900
O1925       O  0.32712554  0.59079854  0.93937495    -0.72660
O1926       O  0.37210524  0.60698479  0.96699044    -0.84790
Zr1927     Zr  0.38896926  0.60519502  0.86125884     2.26420
Zr1928     Zr  0.32693457  0.56607513  0.88748866     2.06270
Zr1929     Zr  0.41795906  0.60123950  0.95080168     2.10050
Zr1930     Zr  0.39738100  0.53251630  0.90737929     1.78760
O1931       O  0.44462287  0.63997946  0.97009481    -0.93600
O1932       O  0.38005642  0.49586358  0.87218621    -0.41400
O1933       O  0.41499004  0.57735595  0.89864846    -0.78040
O1934       O  0.37225237  0.55952159  0.86768292    -0.96720
O1935       O  0.34387918  0.61068689  0.88007627    -0.90030
O1936       O  0.39282166  0.62899142  0.91326449    -0.92870
C1937       C  0.37290960  0.49574364  0.97560653     1.00880
C1938       C  0.38797694  0.60662733  0.02925610     1.13810
C1939       C  0.29777497  0.53048088  0.94661738     1.04590
O1940       O  0.29876433  0.53688289  0.85228807    -0.95020
O1941       O  0.32674383  0.57302504  0.82778988    -0.90770
O1942       O  0.35220162  0.61033974  0.81977475    -0.83910
C1943       C  0.33201560  0.59479964  0.81199148     1.11230
O1944       O  0.31871046  0.64773482  0.97847526    -0.97000
Zr1945     Zr  0.34702403  0.63497423  0.93096749     1.88940
O1946       O  0.38577361  0.65345220  0.85062818    -0.73650
O1947       O  0.28364369  0.58901440  0.89272585    -0.52910
O1948       O  0.30280649  0.64923812  0.91090319    -0.97590
O1949       O  0.36601345  0.67182248  0.96468609    -0.54810
O1950       O  0.35730619  0.66977772  0.89030717    -0.74160
C1951       C  0.37215396  0.67266481  0.86412749     0.98180
O1952       O  0.40771661  0.59193380  0.80722373    -0.62980
O1953       O  0.45322428  0.57415137  0.97639072    -0.57790
O1954       O  0.43645756  0.61792012  0.85911261    -0.94470
O1955       O  0.45370760  0.61450725  0.91167173    -0.92900
O1956       O  0.44162674  0.51944270  0.92853038    -0.93250
O1957       O  0.42875039  0.51899396  0.86344204    -0.92040
C1958       C  0.45616164  0.61915274  0.88016058     1.17020
H1959       H  0.40989576  0.54654852  0.97622649     0.32970
H1960       H  0.37200254  0.55041728  0.84621068     0.43820
H1961       H  0.40231483  0.64601586  0.91092071     0.37340
H1962       H  0.30904355  0.59274958  0.94832521     0.33820
H1963       H  0.38799835  0.47930165  0.88162606     0.25610
H1964       H  0.27841630  0.59314494  0.86940532     0.31550
H1965       H  0.30408262  0.66917143  0.90986244     0.37460
H1966       H  0.43994611  0.49980798  0.93258563     0.31920
H1967       H  0.47035871  0.58084570  0.96636890     0.30800
H1968       H  0.46016569  0.63215842  0.98219651     0.32480
H1969       H  0.38071649  0.67970148  0.95086954     0.31440
H1970       H  0.42769993  0.53359527  0.84672751     0.35440
H1971       H  0.42289330  0.57981643  0.81274622     0.28180
H1972       H  0.32576950  0.54432474  0.03375351     0.32410
H1973       H  0.31295862  0.66646977  0.97409857     0.35260
H1974       H  0.45395142  0.58046050  0.99995512     0.27870
H1975       H  0.39382082  0.57981108  0.79714319     0.40740
H1976       H  0.31006962  0.52084264  0.84784224     0.30800
H1977       H  0.36051951  0.49457406  0.87777644     0.38410
H1978       H  0.37557855  0.66282382  0.98324514     0.30260
H1979       H  0.27064884  0.57479051  0.89975216     0.30330
H1980       H  0.31401510  0.57295723  0.02595258     0.30590
Zr1981     Zr  0.17069981  0.60691114  0.73028261     2.17510
O1982       O  0.16996536  0.58982948  0.78743068    -0.51760
O1983       O  0.21848571  0.61310320  0.74364154    -0.74970
O1984       O  0.18012953  0.55941064  0.73159019    -0.81750
O1985       O  0.11975992  0.65955596  0.75545233    -0.83500
O1986       O  0.20129542  0.55718545  0.68233077    -0.79120
O1987       O  0.15021858  0.63053965  0.77733884    -0.90760
O1988       O  0.24046709  0.63390016  0.70090429    -0.76720
O1989       O  0.19673445  0.60134724  0.68062173    -0.86210
O1990       O  0.18045913  0.65122598  0.71067276    -0.85900
O1991       O  0.14193433  0.57961495  0.69365420    -0.72660
O1992       O  0.12724203  0.62539988  0.71858496    -0.84790
Zr1993     Zr  0.13379007  0.63677866  0.61079801     2.26420
Zr1994     Zr  0.16881047  0.57520174  0.64349178     2.06270
Zr1995     Zr  0.13661170  0.66956826  0.69907792     2.10050
Zr1996     Zr  0.20539696  0.64502525  0.65988692     1.78760
O1997       O  0.09874289  0.69860214  0.71357049    -0.93600
O1998       O  0.24207233  0.62463846  0.62796034    -0.41400
O1999       O  0.16170090  0.66347030  0.64832636    -0.78040
O2000       O  0.17834403  0.61872662  0.62048483    -0.96720
O2001       O  0.12521000  0.59341588  0.63276628    -0.90030
O2002       O  0.10854881  0.64431712  0.66102266    -0.92870
C2003       C  0.24009314  0.62190439  0.72931305     1.00880
C2004       C  0.12921110  0.64547927  0.77964568     1.13810
C2005       C  0.19347258  0.54645907  0.70948422     1.04590
O2006       O  0.20412198  0.55055186  0.61410625    -0.95020
O2007       O  0.16119126  0.56884390  0.58409652    -0.90770
O2008       O  0.12789239  0.59827737  0.57162191    -0.83910
C2009       C  0.14118122  0.57638592  0.56617670     1.11230
O2010       O  0.08289833  0.57222290  0.72745681    -0.97000
Zr2011     Zr  0.09897226  0.60024371  0.68145029     1.88940
O2012       O  0.08592973  0.63421549  0.59671370    -0.73650
O2013       O  0.14589914  0.53133718  0.64186859    -0.52910
O2014       O  0.08161422  0.55715145  0.66033710    -0.97590
O2015       O  0.06390798  0.62165036  0.71520274    -0.54810
O2016       O  0.06516336  0.61239139  0.63972975    -0.74160
C2017       C  0.06488997  0.62438839  0.61131452     0.98180
O2018       O  0.15025074  0.65248864  0.55679060    -0.62980
O2019       O  0.16442095  0.70489954  0.72500691    -0.57790
O2020       O  0.12289164  0.68423513  0.60518277    -0.94470
O2021       O  0.12760159  0.70338216  0.65708279    -0.92900
O2022       O  0.22062162  0.68958087  0.67849648    -0.93250
O2023       O  0.22113719  0.67363776  0.61444921    -0.92040
C2024       C  0.12321775  0.70450263  0.62546247     1.17020
H2025       H  0.19058666  0.66150777  0.72717144     0.32970
H2026       H  0.18798222  0.61686106  0.59955017     0.43820
H2027       H  0.09226670  0.65448496  0.65709075     0.37340
H2028       H  0.13784348  0.56227544  0.70334804     0.33820
H2029       H  0.25871963  0.63412074  0.63572692     0.25610
H2030       H  0.16023816  0.51804006  0.64641797     0.31550
H2031       H  0.06177553  0.55959945  0.65833233     0.37460
H2032       H  0.24043123  0.68782729  0.68176426     0.31920
H2033       H  0.15829039  0.72182771  0.71454622     0.30800
H2034       H  0.10641041  0.71216443  0.72935120     0.32480
H2035       H  0.04685263  0.61873968  0.70254197     0.31440
H2036       H  0.20810938  0.67008279  0.59604379     0.35440
H2037       H  0.16295043  0.66747834  0.56230964     0.28180
H2038       H  0.18776570  0.58117869  0.79079273     0.32410
H2039       H  0.06353364  0.56836069  0.72265104     0.35260
H2040       H  0.15779852  0.70602866  0.74837105     0.27870
H2041       H  0.16208174  0.63787111  0.54846396     0.40740
H2042       H  0.21858738  0.56416200  0.61017063     0.30800
H2043       H  0.24361984  0.60618971  0.63706813     0.38410
H2044       H  0.06767404  0.64125009  0.71339015     0.30260
H2045       H  0.13365216  0.53061972  0.66142682     0.30330
H2046       H  0.15660629  0.57475748  0.78728277     0.30590
Zr2047     Zr  0.16992005  0.37018482  0.69954178     2.17510
O2048       O  0.16755136  0.38441686  0.64125319    -0.51760
O2049       O  0.21829354  0.36620748  0.68768937    -0.74970
O2050       O  0.17874658  0.41773637  0.69398385    -0.81750
O2051       O  0.11525915  0.32085440  0.67867176    -0.83500
O2052       O  0.20072029  0.42487640  0.74255527    -0.79120
O2053       O  0.15132788  0.34174713  0.65511425    -0.90760
O2054       O  0.23936803  0.34396368  0.72964790    -0.76720
O2055       O  0.19784103  0.37554853  0.74758241    -0.86210
O2056       O  0.17677826  0.32598068  0.72073731    -0.85900
O2057       O  0.14397118  0.39904326  0.73669361    -0.72660
O2058       O  0.12521852  0.35451479  0.71338194    -0.84790
Zr2059     Zr  0.13402629  0.34464739  0.82203628     2.26420
Zr2060     Zr  0.17285375  0.40355313  0.78490633     2.06270
Zr2061     Zr  0.13184918  0.31038905  0.73469119     2.10050
Zr2062     Zr  0.20370969  0.33208367  0.76999180     1.78760
O2063       O  0.09205529  0.28304433  0.72065672    -0.93600
O2064       O  0.24150827  0.34976654  0.80304800    -0.41400
O2065       O  0.15901858  0.31621726  0.78393638    -0.78040
O2066       O  0.17945352  0.36031969  0.80950514    -0.96720
O2067       O  0.12845342  0.38774709  0.79842385    -0.90030
O2068       O  0.10665482  0.33758765  0.77327431    -0.92870
C2069       C  0.23961692  0.35700603  0.70194303     1.00880
C2070       C  0.12752210  0.33125391  0.65344801     1.13810
C2071       C  0.19202241  0.43283339  0.71428722     1.04590
O2072       O  0.21389764  0.41293643  0.81695967    -0.95020
O2073       O  0.15807060  0.41664927  0.84008691    -0.90770
O2074       O  0.13263320  0.38288465  0.86260636    -0.83910
C2075       C  0.14315914  0.40690746  0.86342619     1.11230
O2076       O  0.08235164  0.41024575  0.70747145    -0.97000
Zr2077     Zr  0.10015161  0.38158292  0.75150068     1.88940
O2078       O  0.08609612  0.34804494  0.83669862    -0.73650
O2079       O  0.16132191  0.45125209  0.78808569    -0.52910
O2080       O  0.08911360  0.42709854  0.77021866    -0.97590
O2081       O  0.06224553  0.36030276  0.72185017    -0.54810
O2082       O  0.06806881  0.37477090  0.79668745    -0.74160
C2083       C  0.06646606  0.36145759  0.82403424     0.98180
O2084       O  0.15009774  0.32940366  0.87636030    -0.62980
O2085       O  0.15693132  0.27303499  0.71006747    -0.57790
O2086       O  0.12481937  0.29668550  0.82849645    -0.94470
O2087       O  0.11932500  0.27750216  0.77679179    -0.92900
O2088       O  0.21706511  0.28794912  0.74882427    -0.93250
O2089       O  0.21736968  0.30131396  0.81394353    -0.92040
C2090       C  0.12008273  0.27648233  0.80885768     1.17020
H2091       H  0.18569215  0.31484870  0.70420454     0.32970
H2092       H  0.18971883  0.36222739  0.82999953     0.43820
H2093       H  0.08969131  0.32848139  0.77802328     0.37340
H2094       H  0.14023969  0.41649076  0.72745449     0.33820
H2095       H  0.25744565  0.33943874  0.79530970     0.25610
H2096       H  0.17743722  0.46130383  0.77995655     0.31550
H2097       H  0.06932903  0.42670600  0.77443579     0.37460
H2098       H  0.23694642  0.28939739  0.74567308     0.31920
H2099       H  0.14959301  0.25672823  0.72117554     0.30800
H2100       H  0.09888351  0.26857210  0.70575665     0.32480
H2101       H  0.04735725  0.35928692  0.73843180     0.31440
H2102       H  0.20391504  0.30413228  0.83200311     0.35440
H2103       H  0.16163569  0.31365451  0.87128033     0.28180
H2104       H  0.18502239  0.39368816  0.63660743     0.32410
H2105       H  0.06292951  0.41277913  0.71285344     0.35260
H2106       H  0.15019422  0.27168693  0.68676081     0.27870
H2107       H  0.16312446  0.34351236  0.88393334     0.40740
H2108       H  0.21831254  0.43205304  0.81212978     0.30800
H2109       H  0.24465461  0.36821090  0.79440975     0.38410
H2110       H  0.06779204  0.34133231  0.71843130     0.30260
H2111       H  0.14726421  0.45379651  0.77077544     0.30330
H2112       H  0.15376830  0.39881379  0.64073355     0.30590
C2113       C  0.19475927  0.51745419  0.71189984    -0.05900
C2114       C  0.16998526  0.50362856  0.71157532    -0.33330
C2115       C  0.16922613  0.47591700  0.70767966     0.35920
C2116       C  0.19355174  0.46145877  0.70783299    -0.06260
C2117       C  0.21855352  0.47512190  0.70882401    -0.33230
C2118       C  0.21923815  0.50333048  0.70960393     0.35830
H2119       H  0.15104545  0.51447304  0.71289800     0.16200
O2120       O  0.14451649  0.46304582  0.70584966    -0.60720
H2121       H  0.23733123  0.46395129  0.70926132     0.16210
O2122       O  0.24362160  0.51684857  0.70858100    -0.60820
H2123       H  0.25182652  0.51428110  0.73098303     0.43210
H2124       H  0.14018670  0.46205062  0.68162730     0.43170
C2125       C  0.31232229  0.60232679  0.78518491    -0.05900
C2126       C  0.29464478  0.58216136  0.77271923    -0.33330
C2127       C  0.27169617  0.58863151  0.75400906     0.35920
C2128       C  0.26614819  0.61561580  0.74610779    -0.06260
C2129       C  0.28462793  0.63584913  0.75634405    -0.33230
C2130       C  0.30747958  0.62941873  0.77601874     0.35830
H2131       H  0.29778726  0.56117285  0.77891657     0.16200
O2132       O  0.25449366  0.56829652  0.74368809    -0.60720
H2133       H  0.28059117  0.65676056  0.75062316     0.16210
O2134       O  0.32355848  0.64995665  0.78827030    -0.60820
H2135       H  0.33747689  0.65303708  0.77076389     0.43210
H2136       H  0.24281737  0.56433340  0.76330426     0.43170
C2137       C  0.09376684  0.62077111  0.87069370    -0.05900
C2138       C  0.11154685  0.64313285  0.87080975    -0.33330
C2139       C  0.12151481  0.65363442  0.84071169     0.35920
C2140       C  0.11305477  0.64218235  0.81017540    -0.06260
C2141       C  0.09328509  0.62155390  0.81008232    -0.33230
C2142       C  0.08387916  0.61058361  0.84014722     0.35830
H2143       H  0.11969371  0.65079163  0.89426731     0.16200
O2144       O  0.14138678  0.67318902  0.84146924    -0.60720
H2145       H  0.08707939  0.61219734  0.78664951     0.16210
O2146       O  0.06698313  0.58843689  0.83938668    -0.60820
H2147       H  0.04840884  0.59580002  0.84115864     0.43210
H2148       H  0.13163018  0.69049768  0.83942839     0.43170
C2149       C  0.13721409  0.42596137  0.89163875    -0.05900
C2150       C  0.11113905  0.42735238  0.90607328    -0.33330
C2151       C  0.10387462  0.44935794  0.92689940     0.35920
C2152       C  0.12267978  0.47044126  0.93314147    -0.06260
C2153       C  0.14909872  0.46800627  0.92059506    -0.33230
C2154       C  0.15645428  0.44619373  0.90024989     0.35830
H2155       H  0.09590061  0.41229354  0.89960179     0.16200
O2156       O  0.07784876  0.45109251  0.93871502    -0.60720
H2157       H  0.16407397  0.48363082  0.92588805     0.16210
O2158       O  0.18256398  0.44506349  0.88838084    -0.60820
H2159       H  0.18368464  0.45882566  0.87050935     0.43210
H2160       H  0.07816984  0.44215332  0.96082803     0.43170
C2161       C  0.21492292  0.52043491  0.96289191    -0.05900
C2162       C  0.23272698  0.51426869  0.98920879    -0.33330
C2163       C  0.26061504  0.51412155  0.98375073     0.35920
C2164       C  0.27060641  0.51901319  0.95145291    -0.06260
C2165       C  0.25255802  0.51928446  0.92425495    -0.33230
C2166       C  0.22470133  0.52027274  0.92981846     0.35830
H2167       H  0.22553460  0.51293402  0.01477629     0.16200
O2168       O  0.27793375  0.51136990  0.01039060    -0.60720
H2169       H  0.25993736  0.52215828  0.89898721     0.16210
O2170       O  0.20768532  0.52425866  0.90319562    -0.60820
H2171       H  0.20360401  0.50594348  0.89426153     0.43210
H2172       H  0.27649675  0.52840255  0.02346436     0.43170
C2173       C  0.36705693  0.46951892  0.99241315    -0.05900
C2174       C  0.34023830  0.46436706  0.00242750    -0.33330
C2175       C  0.33360165  0.44250857  0.02295268     0.35920
C2176       C  0.35403585  0.42520925  0.03494386    -0.06260
C2177       C  0.38073380  0.42918476  0.02299308    -0.33230
C2178       C  0.38728738  0.45114506  0.00185877     0.35830
H2179       H  0.32428620  0.47800273  0.99507265     0.16200
O2180       O  0.30707041  0.43915827  0.03255676    -0.60720
H2181       H  0.39687591  0.41636798  0.03176236     0.16210
O2182       O  0.41369646  0.45534129  0.99232532    -0.60820
H2183       H  0.42174677  0.46693120  0.01015260     0.43210
H2184       H  0.29926032  0.42597387  0.01633756     0.43170
C2185       C  0.36327085  0.64665327  0.11913721    -0.05900
C2186       C  0.39115219  0.64187748  0.11407127    -0.33330
C2187       C  0.40037354  0.63011031  0.08399390     0.35920
C2188       C  0.38154532  0.62309512  0.05893834    -0.06260
C2189       C  0.35437334  0.63053737  0.06273303    -0.33230
C2190       C  0.34515579  0.64217442  0.09236266     0.35830
H2191       H  0.40543617  0.64512578  0.13434394     0.16200
O2192       O  0.42728156  0.62406487  0.08025457    -0.60720
H2193       H  0.33981385  0.62610935  0.04304396     0.16210
O2194       O  0.31807677  0.64790466  0.09551963    -0.60820
H2195       H  0.30871552  0.63014134  0.09720340     0.43210
H2196       H  0.42926101  0.60574812  0.08971922     0.43170
C2197       C  0.22707797  0.62318654  0.18140207    -0.05900
C2198       C  0.20215349  0.61332005  0.19390375    -0.33330
C2199       C  0.18024569  0.60755902  0.17201956     0.35920
C2200       C  0.18326839  0.61166912  0.13734335    -0.06260
C2201       C  0.20735959  0.62355622  0.12558190    -0.33230
C2202       C  0.22905111  0.62915476  0.14704497     0.35830
H2203       H  0.20024612  0.60846495  0.22019297     0.16200
O2204       O  0.15704596  0.59585437  0.18434028    -0.60720
H2205       H  0.20991325  0.62735549  0.09906430     0.16210
O2206       O  0.25249203  0.63995913  0.13399506    -0.60820
H2207       H  0.26147233  0.62480815  0.12216456     0.43210
H2208       H  0.14467225  0.61109415  0.18892564     0.43170
C2209       C  0.29393006  0.46174163  0.21758902    -0.05900
C2210       C  0.26961206  0.47360028  0.22799249    -0.33330
C2211       C  0.26704977  0.50173913  0.22742955     0.35920
C2212       C  0.28848736  0.51762049  0.21483071    -0.06260
C2213       C  0.31205319  0.50538918  0.20308670    -0.33230
C2214       C  0.31539085  0.47793278  0.20626269     0.35830
H2215       H  0.25318302  0.46120778  0.23760377     0.16200
O2216       O  0.24396823  0.51353223  0.23955717    -0.60720
H2217       H  0.32937570  0.51746374  0.19527421     0.16210
O2218       O  0.34077073  0.46764463  0.20218242    -0.60820
H2219       H  0.35020465  0.47105032  0.22377087     0.43210
H2220       H  0.24634536  0.51420962  0.26420189     0.43170
C2221       C  0.36155134  0.34653553  0.31398704    -0.05900
C2222       C  0.35079729  0.37023840  0.32755188    -0.33330
C2223       C  0.36381783  0.38432174  0.35299934     0.35920
C2224       C  0.38473210  0.37211626  0.37140295    -0.06260
C2225       C  0.39479004  0.34718049  0.35955156    -0.33230
C2226       C  0.38415087  0.33503583  0.33003841     0.35830
H2227       H  0.33288733  0.37922176  0.31698391     0.16200
O2228       O  0.35557848  0.41018231  0.35945085    -0.60720
H2229       H  0.41095693  0.33727243  0.37289580     0.16210
O2230       O  0.39551963  0.31186242  0.31773319    -0.60820
H2231       H  0.38498723  0.29692636  0.32802873     0.43210
H2232       H  0.36737711  0.42181238  0.34539428     0.43170
C2233       C  0.35983126  0.55518459  0.39449730    -0.05900
C2234       C  0.33858425  0.54088067  0.40982649    -0.33330
C2235       C  0.34370870  0.51947353  0.43152215     0.35920
C2236       C  0.37049038  0.51171250  0.43866694    -0.06260
C2237       C  0.39198234  0.52707461  0.42515408    -0.33230
C2238       C  0.38679247  0.54868174  0.40312750     0.35830
H2239       H  0.31774080  0.54542949  0.40356620     0.16200
O2240       O  0.32220216  0.50547666  0.44476213    -0.60720
H2241       H  0.41273876  0.52130295  0.42998520     0.16210
O2242       O  0.40814451  0.56147701  0.38774921    -0.60820
H2243       H  0.41248511  0.57724439  0.40228672     0.43210
H2244       H  0.31704751  0.49225169  0.42710688     0.43170
C2245       C  0.26611306  0.36419607  0.68632292    -0.05900
C2246       C  0.27192556  0.39157179  0.68106678    -0.33330
C2247       C  0.29528775  0.39982238  0.66391210     0.35920
C2248       C  0.31333530  0.38054970  0.65032285    -0.06260
C2249       C  0.30833338  0.35306142  0.65726564    -0.33230
C2250       C  0.28497134  0.34486404  0.67524274     0.35830
H2251       H  0.25792289  0.40677979  0.68992105     0.16200
O2252       O  0.29952784  0.42693940  0.65923210    -0.60720
H2253       H  0.32160212  0.33778224  0.64703113     0.16210
O2254       O  0.28006759  0.31791253  0.68025078    -0.60820
H2255       H  0.26952583  0.31178700  0.66041012     0.43210
H2256       H  0.31197403  0.43264815  0.67751152     0.43170
C2257       C  0.09647353  0.35684334  0.56065124    -0.05900
C2258       C  0.08461281  0.36609093  0.59031168    -0.33330
C2259       C  0.09244547  0.35525290  0.62106869     0.35920
C2260       C  0.11258616  0.33526644  0.62219816    -0.06260
C2261       C  0.12290142  0.32470982  0.59234407    -0.33230
C2262       C  0.11460148  0.33508993  0.56161043     0.35830
H2263       H  0.07093178  0.38306073  0.58986826     0.16200
O2264       O  0.08259732  0.36642806  0.65004191    -0.60720
H2265       H  0.13873997  0.30971486  0.59293148     0.16210
O2266       O  0.12638147  0.32573110  0.53277874    -0.60820
H2267       H  0.11828507  0.30755371  0.52903336     0.43210
H2268       H  0.09509771  0.38171158  0.65515106     0.43170
C2269       C  0.11861864  0.51111308  0.49993608    -0.05900
C2270       C  0.14186454  0.52681569  0.49314925    -0.33330
C2271       C  0.14868509  0.54933101  0.51326836     0.35920
C2272       C  0.13174426  0.55702352  0.54001320    -0.06260
C2273       C  0.10784040  0.54204387  0.54578410    -0.33230
C2274       C  0.10152900  0.51897089  0.52643713     0.35830
H2275       H  0.15556093  0.52072003  0.47332999     0.16200
O2276       O  0.17264237  0.56284717  0.50767429    -0.60720
H2277       H  0.09495125  0.54718395  0.56682131     0.16210
O2278       O  0.07895783  0.50384382  0.53412481    -0.60820
H2279       H  0.08500718  0.49105301  0.55151083     0.43210
H2280       H  0.16781409  0.57819243  0.49312652     0.43170
C2281       C  0.27226413  0.46347663  0.48112989    -0.05900
C2282       C  0.26415164  0.46668021  0.44782151    -0.33330
C2283       C  0.23673536  0.46694852  0.43957423     0.35920
C2284       C  0.21719865  0.46288950  0.46494227    -0.06260
C2285       C  0.22521262  0.46454586  0.49851734    -0.33230
C2286       C  0.25262945  0.46530404  0.50681531     0.35830
H2287       H  0.27881144  0.46606344  0.42769085     0.16200
O2288       O  0.22948112  0.46848348  0.40645360    -0.60720
H2289       H  0.21037451  0.46260112  0.51839832     0.16210
O2290       O  0.25966061  0.46388688  0.53995542    -0.60820
H2291       H  0.26279951  0.48286954  0.54710675     0.43210
H2292       H  0.23515775  0.45120225  0.39605649     0.43170
C2293       C  0.22675372  0.36416091  0.25020479    -0.05900
C2294       C  0.20357558  0.37722241  0.23791599    -0.33330
C2295       C  0.18092708  0.38163619  0.25879108     0.35920
C2296       C  0.18121988  0.37250235  0.29205867    -0.06260
C2297       C  0.20351712  0.35767568  0.30325582    -0.33230
C2298       C  0.22617129  0.35369679  0.28284613     0.35830
H2299       H  0.20374957  0.38555316  0.21292567     0.16200
O2300       O  0.15982981  0.39686380  0.24744770    -0.60720
H2301       H  0.20410312  0.35060712  0.32886613     0.16210
O2302       O  0.24797213  0.33997966  0.29527869    -0.60820
H2303       H  0.25790948  0.35321652  0.30957729     0.43210
H2304       H  0.14613617  0.38360678  0.23921269     0.43170
C2305       C  0.37954703  0.20334404  0.08155785    -0.05900
C2306       C  0.37659559  0.20550290  0.11634590    -0.33330
C2307       C  0.37483488  0.23079321  0.13193094     0.35920
C2308       C  0.37608560  0.25461351  0.11256401    -0.06260
C2309       C  0.38100235  0.25227355  0.07802240    -0.33230
C2310       C  0.38255586  0.22700189  0.06250696     0.35830
H2311       H  0.37430390  0.18751509  0.13138938     0.16200
O2312       O  0.37041411  0.23175011  0.16581210    -0.60720
H2313       H  0.38276287  0.27007338  0.06256590     0.16210
O2314       O  0.38710764  0.22564715  0.02864536    -0.60820
H2315       H  0.36949564  0.23004882  0.01811198     0.43210
H2316       H  0.38874415  0.23185625  0.17603344     0.43170
C2317       C  0.22092499  0.04656925  0.97692124    -0.05900
C2318       C  0.23149281  0.07276493  0.97765806    -0.33330
C2319       C  0.25794880  0.07740973  0.96824443     0.35920
C2320       C  0.27489437  0.05542816  0.96125297    -0.06260
C2321       C  0.26499292  0.02893112  0.96272350    -0.33230
C2322       C  0.23769235  0.02442647  0.97018408     0.35830
H2323       H  0.21838648  0.08998955  0.98147832     0.16200
O2324       O  0.26698358  0.10361276  0.96529297    -0.60720
H2325       H  0.27820718  0.01202809  0.95774895     0.16210
O2326       O  0.22716320  0.99873005  0.96895545    -0.60820
H2327       H  0.22830480  0.99207670  0.99225597     0.43210
H2328       H  0.26468603  0.10804774  0.94129359     0.43170
C2329       C  0.11832483  0.24963697  0.82408614    -0.05900
C2330       C  0.13935365  0.24215801  0.84542386    -0.33330
C2331       C  0.14051176  0.21615816  0.85828875     0.35920
C2332       C  0.11993459  0.19700845  0.85052503    -0.06260
C2333       C  0.09887295  0.20446751  0.82879952    -0.33230
C2334       C  0.09816722  0.23055206  0.81527555     0.35830
H2335       H  0.15558021  0.25635229  0.85132364     0.16200
O2336       O  0.16257512  0.20937929  0.87728697    -0.60720
H2337       H  0.08278298  0.19022872  0.82263417     0.16210
O2338       O  0.07728066  0.23749627  0.79448624    -0.60820
H2339       H  0.08282828  0.23120838  0.77190089     0.43210
H2340       H  0.15922438  0.21742627  0.89970316     0.43170
C2341       C  0.10764142  0.75084529  0.11086496    -0.05900
C2342       C  0.10771536  0.72806963  0.13178545    -0.33330
C2343       C  0.10882320  0.70185599  0.11835796     0.35920
C2344       C  0.11033232  0.69797670  0.08343021    -0.06260
C2345       C  0.10858598  0.72052232  0.06253266    -0.33230
C2346       C  0.10689186  0.74661470  0.07579735     0.35830
H2347       H  0.10817570  0.73050254  0.15874823     0.16200
O2348       O  0.11038897  0.68037957  0.13969367    -0.60720
H2349       H  0.10887257  0.71797714  0.03556582     0.16210
O2350       O  0.10582066  0.76780545  0.05397385    -0.60820
H2351       H  0.08623196  0.77152769  0.05115896     0.43210
H2352       H  0.09131519  0.67578828  0.14535472     0.43170
C2353       C  0.13979581  0.92346720  0.03796246    -0.05900
C2354       C  0.15525446  0.94746204  0.04046900    -0.33330
C2355       C  0.14747305  0.97125748  0.02470346     0.35920
C2356       C  0.12362632  0.97207628  0.00501953    -0.06260
C2357       C  0.10858602  0.94787289  0.00104918    -0.33230
C2358       C  0.11629915  0.92386675  0.01755533     0.35830
H2359       H  0.17333759  0.94831357  0.05583256     0.16200
O2360       O  0.16358767  0.99376680  0.02904698    -0.60720
H2361       H  0.09042475  0.94769624  0.98580088     0.16210
O2362       O  0.10028440  0.90124214  0.01419119    -0.60820
H2363       H  0.10817885  0.89105270  0.99514595     0.43210
H2364       H  0.17650807  0.99346676  0.01003129     0.43170
C2365       C  0.11573326  0.28437942  0.34709505    -0.05900
C2366       C  0.13906829  0.27409292  0.33198641    -0.33330
C2367       C  0.13904871  0.24802832  0.31848121     0.35920
C2368       C  0.11561009  0.23162324  0.32050150    -0.06260
C2369       C  0.09218510  0.24176858  0.33577471    -0.33230
C2370       C  0.09205459  0.26823838  0.34870514     0.35830
H2371       H  0.15741817  0.28629260  0.33082880     0.16200
O2372       O  0.16219964  0.23857441  0.30357985    -0.60720
H2373       H  0.07408718  0.22927325  0.33751305     0.16210
O2374       O  0.06917045  0.27773723  0.36413356    -0.60820
H2375       H  0.05893447  0.28703577  0.34631926     0.43210
H2376       H  0.17243357  0.22972055  0.32175138     0.43170
C2377       C  0.09193118  0.11335543  0.06747616    -0.05900
C2378       C  0.08671829  0.14067875  0.07572252    -0.33330
C2379       C  0.10056394  0.15360928  0.10271824     0.35920
C2380       C  0.12224732  0.14036262  0.11866159    -0.06260
C2381       C  0.12829427  0.11420441  0.10787979    -0.33230
C2382       C  0.11082822  0.09968861  0.08721987     0.35830
H2383       H  0.07208919  0.15193022  0.06138393     0.16200
O2384       O  0.09350833  0.17922682  0.11223660    -0.60720
H2385       H  0.14595572  0.10411491  0.11701416     0.16210
O2386       O  0.11329053  0.07214525  0.08569788    -0.60820
H2387       H  0.10003172  0.06509792  0.10221359     0.43210
H2388       H  0.10538811  0.19135728  0.09895898     0.43170
C2389       C  0.26018473  0.12598794  0.17744154    -0.05900
C2390       C  0.28479227  0.11656810  0.19090093    -0.33330
C2391       C  0.30718545  0.11092236  0.16988199     0.35920
C2392       C  0.30504551  0.11485667  0.13510750    -0.06260
C2393       C  0.28117534  0.12622700  0.12242286    -0.33230
C2394       C  0.25893769  0.13145799  0.14298133     0.35830
H2395       H  0.28610001  0.11204663  0.21733172     0.16200
O2396       O  0.32999258  0.09960575  0.18314457    -0.60720
H2397       H  0.27923383  0.12994017  0.09581897     0.16210
O2398       O  0.23578920  0.14163005  0.12898680    -0.60820
H2399       H  0.22682954  0.12607994  0.11756618     0.43210
H2400       H  0.34224229  0.11506151  0.18838667     0.43170
C2401       C  0.19726081  0.01887511  0.20507662    -0.05900
C2402       C  0.22314848  0.00749987  0.20499125    -0.33330
C2403       C  0.22558290  0.97941885  0.20469331     0.35920
C2404       C  0.20197630  0.96345984  0.20643726    -0.06260
C2405       C  0.17638207  0.97504535  0.20599738    -0.33230
C2406       C  0.17386785  0.00255746  0.20423544     0.35830
H2407       H  0.24110587  0.02022550  0.20665764     0.16200
O2408       O  0.25069818  0.96783478  0.20361677    -0.60720
H2409       H  0.15812535  0.96260500  0.20618959     0.16210
O2410       O  0.14841091  0.01354966  0.20540856    -0.60820
H2411       H  0.14021900  0.00957883  0.18320484     0.43210
H2412       H  0.25677621  0.96718366  0.22725613     0.43170
C2413       C  0.37429515  0.78132202  0.35531610    -0.05900
C2414       C  0.38077913  0.77809275  0.32131978    -0.33330
C2415       C  0.38091210  0.75243536  0.30632261     0.35920
C2416       C  0.37480964  0.72925414  0.32549805    -0.06260
C2417       C  0.36999306  0.73243863  0.35990840    -0.33230
C2418       C  0.36951767  0.75802738  0.37477152     0.35830
H2419       H  0.38490333  0.79556943  0.30592883     0.16200
O2420       O  0.38706649  0.75034790  0.27291307    -0.60720
H2421       H  0.36548359  0.71509289  0.37536758     0.16210
O2422       O  0.36453834  0.75989739  0.40849744    -0.60820
H2423       H  0.34457800  0.75798748  0.41082996     0.43210
H2424       H  0.37026351  0.75544123  0.26096629     0.43170
C2425       C  0.30974548  0.87784417  0.28825537    -0.05900
C2426       C  0.29246272  0.89782904  0.27610715    -0.33330
C2427       C  0.27020945  0.89124350  0.25582722     0.35920
C2428       C  0.26471622  0.86416264  0.24665551    -0.06260
C2429       C  0.28321627  0.84424122  0.25637733    -0.33230
C2430       C  0.30559431  0.85092260  0.27718110     0.35830
H2431       H  0.29526195  0.91863751  0.28407542     0.16200
O2432       O  0.25347931  0.91153028  0.24551445    -0.60720
H2433       H  0.27938757  0.82332553  0.24967192     0.16210
O2434       O  0.32154103  0.83065812  0.28916865    -0.60820
H2435       H  0.33684487  0.82936525  0.27315176     0.43210
H2436       H  0.24223802  0.91615120  0.26530385     0.43170
C2437       C  0.12528833  0.84442361  0.31225231    -0.05900
C2438       C  0.09885161  0.83676723  0.32241192    -0.33330
C2439       C  0.08595119  0.84998749  0.34958324     0.35920
C2440       C  0.09828027  0.87293861  0.36465289    -0.06260
C2441       C  0.12357929  0.88135530  0.35244940    -0.33230
C2442       C  0.13824834  0.86551476  0.33019663     0.35830
H2443       H  0.08820492  0.82060398  0.30938382     0.16200
O2444       O  0.06124302  0.84070878  0.36054781    -0.60720
H2445       H  0.13332005  0.89939170  0.36223410     0.16210
O2446       O  0.16517181  0.87167492  0.32553020    -0.60820
H2447       H  0.17507410  0.85959602  0.34086287     0.43210
H2448       H  0.04766789  0.85116212  0.34788880     0.43170
C2449       C  0.13815304  0.05867959  0.39764013    -0.05900
C2450       C  0.11168688  0.05291309  0.40904332    -0.33330
C2451       C  0.10597800  0.02910661  0.42727477     0.35920
C2452       C  0.12668834  0.01026753  0.43348374    -0.06260
C2453       C  0.15326396  0.01695006  0.42401089    -0.33230
C2454       C  0.15914314  0.04091878  0.40700249     0.35830
H2455       H  0.09509853  0.06578553  0.40178971     0.16200
O2456       O  0.07974623  0.02338022  0.43634945    -0.60720
H2457       H  0.16963718  0.00318631  0.42933079     0.16210
O2458       O  0.18544750  0.04582318  0.39740135    -0.60820
H2459       H  0.19296362  0.05819954  0.41475891     0.43210
H2460       H  0.07753095  0.03178604  0.45877574     0.43170
C2461       C  0.21830525  0.93129615  0.46095619    -0.05900
C2462       C  0.23253102  0.95519558  0.45400746    -0.33330
C2463       C  0.26034391  0.95677760  0.46060696     0.35920
C2464       C  0.27330826  0.93456193  0.47490283    -0.06260
C2465       C  0.25897997  0.91076819  0.48133022    -0.33230
C2466       C  0.23172753  0.90883156  0.47375105     0.35830
H2467       H  0.22213833  0.97239489  0.44366408     0.16200
O2468       O  0.27459029  0.97987167  0.45320452    -0.60720
H2469       H  0.26912019  0.89310639  0.49066771     0.16210
O2470       O  0.21854960  0.88452790  0.47760942    -0.60820
H2471       H  0.22183836  0.87441997  0.45649459     0.43210
H2472       H  0.28116236  0.97720477  0.42997016     0.43170
C2473       C  0.11815310  0.78319911  0.58355589    -0.05900
C2474       C  0.09500062  0.76647953  0.58367077    -0.33330
C2475       C  0.09624554  0.74044605  0.59711081     0.35920
C2476       C  0.12060258  0.73148610  0.61131909    -0.06260
C2477       C  0.14339905  0.74856742  0.61204855    -0.33230
C2478       C  0.14243106  0.77410849  0.59774882     0.35830
H2479       H  0.07629822  0.77330308  0.57245967     0.16200
O2480       O  0.07358221  0.72416677  0.59685745    -0.60720
H2481       H  0.16222385  0.74177838  0.62301850     0.16210
O2482       O  0.16525623  0.79019115  0.59790502    -0.60820
H2483       H  0.17556452  0.78480049  0.57765114     0.43210
H2484       H  0.07449715  0.71393639  0.57546062     0.43170
C2485       C  0.37229837  0.75283336  0.82163319    -0.05900
C2486       C  0.38439972  0.73139372  0.80405532    -0.33330
C2487       C  0.38516172  0.70532533  0.81759415     0.35920
C2488       C  0.37344286  0.70017129  0.84923704    -0.06260
C2489       C  0.36194850  0.72186180  0.86698600    -0.33230
C2490       C  0.36139956  0.74782091  0.85365894     0.35830
H2491       H  0.39301805  0.73474706  0.77946874     0.16200
O2492       O  0.39716262  0.68511191  0.79943283    -0.60720
H2493       H  0.35286836  0.71876935  0.89136925     0.16210
O2494       O  0.34854082  0.76772830  0.87142896    -0.60820
H2495       H  0.36203514  0.77418481  0.88814892     0.43210
H2496       H  0.38272925  0.67795856  0.78442503     0.43170
C2497       C  0.36385207  0.83948036  0.61757548    -0.05900
C2498       C  0.39068057  0.83338469  0.60786460    -0.33330
C2499       C  0.40369721  0.84785640  0.58186193     0.35920
C2500       C  0.39107044  0.87060613  0.56779154    -0.06260
C2501       C  0.36535955  0.87752473  0.57971026    -0.33230
C2502       C  0.35052521  0.86035734  0.60056819     0.35830
H2503       H  0.40149389  0.81738136  0.62024982     0.16200
O2504       O  0.42878929  0.83994948  0.57102268    -0.60720
H2505       H  0.35569854  0.89560860  0.57101403     0.16210
O2506       O  0.32299121  0.86409164  0.60438135    -0.60820
H2507       H  0.31962759  0.88376373  0.60578141     0.43210
H2508       H  0.44189498  0.85063065  0.58466683     0.43170
C2509       C  0.23039871  0.87260216  0.67236246    -0.05900
C2510       C  0.20615146  0.85783146  0.67741175    -0.33330
C2511       C  0.18228681  0.86376289  0.65927985     0.35920
C2512       C  0.18193213  0.88555530  0.63657741    -0.06260
C2513       C  0.20594015  0.90080182  0.63274737    -0.33230
C2514       C  0.22985999  0.89424898  0.64953597     0.35830
H2515       H  0.20584641  0.84118048  0.69481801     0.16200
O2516       O  0.15950463  0.84818634  0.66413128    -0.60720
H2517       H  0.20667615  0.91757555  0.61553863     0.16210
O2518       O  0.25258089  0.90970622  0.64373704    -0.60820
H2519       H  0.26027668  0.90266545  0.62249201     0.43210
H2520       H  0.16170365  0.83235697  0.64906366     0.43170
C2521       C  0.36590557  0.92926342  0.88656014    -0.05900
C2522       C  0.38028000  0.95165770  0.87386473    -0.33330
C2523       C  0.38413116  0.97521773  0.89284908     0.35920
C2524       C  0.37441955  0.97670287  0.92588017    -0.06260
C2525       C  0.36189667  0.95357237  0.93974539    -0.33230
C2526       C  0.35733025  0.93003276  0.92015646     0.35830
H2527       H  0.38707363  0.95153782  0.84804452     0.16200
O2528       O  0.39721798  0.99688401  0.87869233    -0.60720
H2529       H  0.35419800  0.95433129  0.96512897     0.16210
O2530       O  0.34256892  0.90900978  0.93316157    -0.60820
H2531       H  0.35624188  0.89626683  0.94175246     0.43210
H2532       H  0.38336864  0.00576754  0.86466347     0.43170
C2533       C  0.37971211  0.23174012  0.61509379    -0.05900
C2534       C  0.37866441  0.25463520  0.63623528    -0.33330
C2535       C  0.37873879  0.28076568  0.62309007     0.35920
C2536       C  0.37959684  0.28446021  0.58824680    -0.06260
C2537       C  0.38211534  0.26185734  0.56718104    -0.33230
C2538       C  0.38236849  0.23572820  0.58022417     0.35830
H2539       H  0.37656814  0.25238827  0.66306171     0.16200
O2540       O  0.37581945  0.30240050  0.64436857    -0.60720
H2541       H  0.38345793  0.26443268  0.54031048     0.16210
O2542       O  0.38497207  0.21431238  0.55852353    -0.60820
H2543       H  0.36695899  0.21214781  0.54772170     0.43210
H2544       H  0.39445332  0.30694970  0.65203031     0.43170
C2545       C  0.36774245  0.14008707  0.81600341    -0.05900
C2546       C  0.39323299  0.15019832  0.82683678    -0.33330
C2547       C  0.40742742  0.13772094  0.85337230     0.35920
C2548       C  0.39782936  0.11300344  0.86660444    -0.06260
C2549       C  0.37407128  0.10192522  0.85286380    -0.33230
C2550       C  0.35725893  0.11698949  0.83210252     0.35830
H2551       H  0.40194064  0.16792247  0.81513672     0.16200
O2552       O  0.43068507  0.14955505  0.86557557    -0.60720
H2553       H  0.36686770  0.08235226  0.86095295     0.16210
O2554       O  0.33046873  0.10929211  0.82777806    -0.60820
H2555       H  0.32898405  0.08942974  0.83026485     0.43210
H2556       H  0.44561833  0.14132975  0.85251170     0.43170
C2557       C  0.22832454  0.11240602  0.75439910    -0.05900
C2558       C  0.22441844  0.08569337  0.76494506    -0.33330
C2559       C  0.20149827  0.07801453  0.78338145     0.35920
C2560       C  0.18184963  0.09724745  0.79271750    -0.06260
C2561       C  0.18477445  0.12371121  0.78035941    -0.33230
C2562       C  0.20774361  0.13129881  0.76118751     0.35830
H2563       H  0.23957835  0.07062548  0.75930944     0.16200
O2564       O  0.19927691  0.05176113  0.79378534    -0.60720
H2565       H  0.17024449  0.13898216  0.78744336     0.16210
O2566       O  0.21057593  0.15751337  0.75091821    -0.60820
H2567       H  0.22050402  0.16687941  0.76928790     0.43210
H2568       H  0.18744818  0.04269442  0.77696981     0.43170
C2569       C  0.30588375  0.96261435  0.71477463    -0.05900
C2570       C  0.32314773  0.97928815  0.73353926    -0.33330
C2571       C  0.31566861  0.00499214  0.74241080     0.35920
C2572       C  0.29294963  0.01630614  0.72714442    -0.06260
C2573       C  0.27455064  0.99954921  0.70966523    -0.33230
C2574       C  0.28071641  0.97238103  0.70397708     0.35830
H2575       H  0.34310496  0.97262870  0.74101776     0.16200
O2576       O  0.33358605  0.02034286  0.76073444    -0.60720
H2577       H  0.25697585  0.00813848  0.69762581     0.16210
O2578       O  0.26288861  0.95618252  0.68657858    -0.60820
H2579       H  0.26531698  0.96117442  0.66276503     0.43210
H2580       H  0.32719142  0.01895750  0.78419144     0.43170
C2581       C  0.35322486  0.05978870  0.53611302    -0.05900
C2582       C  0.33277320  0.04164865  0.52555534    -0.33330
C2583       C  0.33894851  0.01778931  0.50829291     0.35920
C2584       C  0.36598914  0.01167700  0.50005380    -0.06260
C2585       C  0.38636026  0.03088483  0.50772523    -0.33230
C2586       C  0.38017943  0.05468363  0.52593177     0.35830
H2587       H  0.31190921  0.04499628  0.53293352     0.16200
O2588       O  0.31828427  0.00026058  0.49989336    -0.60720
H2589       H  0.40727141  0.02668302  0.50142043     0.16210
O2590       O  0.40093548  0.07129910  0.53642712    -0.60820
H2591       H  0.40315456  0.08473453  0.51834847     0.43210
H2592       H  0.31357831  0.99076225  0.52090534     0.43170
C2593       C  0.95538873  0.85797879  0.59654866    -0.05900
C2594       C  0.95775683  0.85741120  0.56155919    -0.33330
C2595       C  0.98331509  0.85776484  0.54609192     0.35920
C2596       C  0.00725584  0.85823864  0.56572629    -0.06260
C2597       C  0.00464138  0.85696183  0.60076059    -0.33230
C2598       C  0.97915848  0.85684525  0.61609958     0.35830
H2599       H  0.93973825  0.85793504  0.54605911     0.16200
O2600       O  0.98448561  0.85824448  0.51179677    -0.60720
H2601       H  0.02244307  0.85695210  0.61664885     0.16210
O2602       O  0.97781398  0.85612673  0.65037695    -0.60820
H2603       H  0.97520379  0.83680229  0.65594130     0.43210
H2604       H  0.98209546  0.87744652  0.50571016     0.43170
C2605       C  0.77375593  0.96452481  0.71027630    -0.05900
C2606       C  0.77100712  0.97192457  0.74401260    -0.33330
C2607       C  0.76832386  0.99894097  0.75298912     0.35920
C2608       C  0.76966291  0.01878719  0.72786594    -0.06260
C2609       C  0.76649774  0.01098171  0.69436047    -0.33230
C2610       C  0.76836302  0.98386062  0.68532444     0.35830
H2611       H  0.77396547  0.95731533  0.76362308     0.16200
O2612       O  0.76890679  0.00572788  0.78633241    -0.60720
H2613       H  0.76593081  0.02602353  0.67481993     0.16210
O2614       O  0.76788435  0.97705740  0.65194400    -0.60820
H2615       H  0.78575688  0.98285872  0.64295065     0.43210
H2616       H  0.74963140  0.00799585  0.79274396     0.43170
C2617       C  0.95411079  0.12219145  0.83510047    -0.05900
C2618       C  0.97703875  0.12227475  0.81425209    -0.33330
C2619       C  0.00331326  0.12262819  0.82766666     0.35920
C2620       C  0.00717029  0.12268808  0.86275670    -0.06260
C2621       C  0.98404394  0.12375654  0.88349892    -0.33230
C2622       C  0.95781754  0.12361644  0.86999647     0.35830
H2623       H  0.97460695  0.12173654  0.78729302     0.16200
O2624       O  0.02496482  0.12258836  0.80610547    -0.60720
H2625       H  0.98611400  0.12371238  0.91048960     0.16210
O2626       O  0.93597407  0.12293957  0.89125434    -0.60820
H2627       H  0.93269279  0.14205055  0.89743828     0.43210
H2628       H  0.02641769  0.10366814  0.79806654     0.43170
C2629       C  0.50630470  0.85626571  0.86177876    -0.05900
C2630       C  0.48307672  0.85815785  0.88226288    -0.33330
C2631       C  0.45693813  0.85660029  0.86856552     0.35920
C2632       C  0.45362216  0.85327360  0.83381367    -0.06260
C2633       C  0.47663727  0.84943010  0.81370730    -0.33230
C2634       C  0.50272611  0.85084590  0.82727598     0.35830
H2635       H  0.48504923  0.86214354  0.90885336     0.16200
O2636       O  0.43496433  0.86065012  0.88898067    -0.60720
H2637       H  0.47445099  0.84619706  0.78697095     0.16210
O2638       O  0.52449431  0.84737102  0.80632951    -0.60820
H2639       H  0.52693525  0.86489368  0.79480882     0.43210
H2640       H  0.43017720  0.84253049  0.89769084     0.43170
C2641       C  0.68235123  0.88204642  0.79238249    -0.05900
C2642       C  0.70804577  0.89278865  0.80011685    -0.33330
C2643       C  0.73098697  0.88665253  0.78137286     0.35920
C2644       C  0.72922584  0.86948577  0.75293894    -0.06260
C2645       C  0.70339518  0.85871274  0.74457949    -0.33230
C2646       C  0.68017883  0.86448011  0.76442257     0.35830
H2647       H  0.71073244  0.90613388  0.82143191     0.16200
O2648       O  0.75515791  0.89803499  0.79134520    -0.60720
H2649       H  0.70121359  0.84562293  0.72289360     0.16210
O2650       O  0.65551291  0.85359260  0.75560091    -0.60820
H2651       H  0.65485195  0.83565694  0.76642557     0.43210
H2652       H  0.75568462  0.91601121  0.78068694     0.43170
C2653       C  0.98450718  0.86625662  0.07108631    -0.05900
C2654       C  0.98921771  0.84983877  0.09893926    -0.33330
C2655       C  0.01553301  0.84691692  0.11153857     0.35920
C2656       C  0.03739778  0.86046166  0.09621348    -0.06260
C2657       C  0.03288008  0.87644059  0.06819020    -0.33230
C2658       C  0.00668774  0.87969047  0.05580683     0.35830
H2659       H  0.97250443  0.83941129  0.11101862     0.16200
O2660       O  0.01964379  0.83131715  0.13925208    -0.60720
H2661       H  0.04955832  0.88749652  0.05685999     0.16210
O2662       O  0.00290128  0.89704312  0.02966130    -0.60820
H2663       H  0.99876660  0.91471425  0.04022591     0.43210
H2664       H  0.02494270  0.81338593  0.13035517     0.43170
C2665       C  0.89325369  0.86111821  0.87459527    -0.05900
C2666       C  0.87280224  0.84133840  0.87126448    -0.33330
C2667       C  0.86428948  0.83259814  0.83959053     0.35920
C2668       C  0.87636837  0.84369615  0.81100194    -0.06260
C2669       C  0.89867255  0.86138749  0.81441432    -0.33230
C2670       C  0.90718616  0.87015708  0.84613767     0.35830
H2671       H  0.86178688  0.83448240  0.89314855     0.16200
O2672       O  0.84226039  0.81561590  0.83678861    -0.60720
H2673       H  0.90780431  0.87035809  0.79240408     0.16210
O2674       O  0.92685539  0.88981711  0.84881581    -0.60820
H2675       H  0.94393625  0.87995770  0.85282131     0.43210
H2676       H  0.84997012  0.79732086  0.83410441     0.43170
C2677       C  0.87867872  0.01203477  0.93669515    -0.05900
C2678       C  0.88742456  0.01140947  0.90331782    -0.33330
C2679       C  0.88239459  0.03296481  0.88182408     0.35920
C2680       C  0.86831157  0.05586511  0.89334440    -0.06260
C2681       C  0.86116630  0.05747824  0.92733728    -0.33230
C2682       C  0.86648526  0.03581085  0.94908731     0.35830
H2683       H  0.89714375  0.99354008  0.89336049     0.16200
O2684       O  0.89035131  0.03106592  0.84896411    -0.60720
H2685       H  0.84988686  0.07466490  0.93649841     0.16210
O2686       O  0.85731094  0.03704397  0.98144544    -0.60820
H2687       H  0.87258217  0.04497818  0.99447303     0.43210
H2688       H  0.87823325  0.01721732  0.83869557     0.43170
C2689       C  0.77142799  0.96109827  0.97505910    -0.05900
C2690       C  0.76289692  0.96265771  0.94173092    -0.33330
C2691       C  0.73539243  0.96383204  0.93415420     0.35920
C2692       C  0.71611105  0.96262636  0.96025276    -0.06260
C2693       C  0.72479018  0.96566203  0.99339734    -0.33230
C2694       C  0.75235291  0.96513269  0.00102031     0.35830
H2695       H  0.77733946  0.96062496  0.92143052     0.16200
O2696       O  0.72774548  0.96252957  0.90121952    -0.60720
H2697       H  0.71018425  0.96593645  0.01367980     0.16210
O2698       O  0.76010251  0.96619008  0.03401181    -0.60820
H2699       H  0.75452141  0.94859872  0.04363887     0.43210
H2700       H  0.72633638  0.98159091  0.89410340     0.43170
C2701       C  0.50626088  0.12849726  0.57244558    -0.05900
C2702       C  0.48344656  0.12887606  0.55116877    -0.33330
C2703       C  0.45715276  0.13001046  0.56422210     0.35920
C2704       C  0.45328088  0.13052241  0.59907399    -0.06260
C2705       C  0.47597777  0.13242203  0.62020103    -0.33230
C2706       C  0.50224947  0.13149485  0.60727518     0.35830
H2707       H  0.48578734  0.12693401  0.52429989     0.16200
O2708       O  0.43547157  0.12830733  0.54279130    -0.60720
H2709       H  0.47336130  0.13367938  0.64710893     0.16210
O2710       O  0.52372168  0.13289448  0.62909672    -0.60820
H2711       H  0.52512429  0.11456068  0.63870814     0.43210
H2712       H  0.43170922  0.14719494  0.53637195     0.43170
C2713       C  0.72590627  0.12483174  0.68326432    -0.05900
C2714       C  0.70158969  0.11370753  0.69601369    -0.33330
C2715       C  0.67951948  0.10746498  0.67456864     0.35920
C2716       C  0.68161277  0.11239111  0.63995642    -0.06260
C2717       C  0.70512881  0.12523940  0.62787308    -0.33230
C2718       C  0.72703702  0.13135149  0.64899041     0.35830
H2719       H  0.70034353  0.10821621  0.72216459     0.16200
O2720       O  0.65714266  0.09442770  0.68716770    -0.60720
H2721       H  0.70703865  0.12950736  0.60139367     0.16210
O2722       O  0.74981005  0.14330930  0.63570031    -0.60820
H2723       H  0.75937432  0.12869077  0.62354495     0.43210
H2724       H  0.64425505  0.10897359  0.69293188     0.43170
C2725       C  0.98104440  0.12510516  0.35876160    -0.05900
C2726       C  0.98604006  0.11013060  0.32971208    -0.33330
C2727       C  0.01195186  0.10864170  0.31634106     0.35920
C2728       C  0.03379442  0.12286489  0.33172347    -0.06260
C2729       C  0.02851674  0.13889347  0.36015936    -0.33230
C2730       C  0.00238164  0.13982033  0.37394149     0.35830
H2731       H  0.97002274  0.09812723  0.31818745     0.16200
O2732       O  0.01570166  0.09201295  0.28913276    -0.60720
H2733       H  0.04469675  0.15033765  0.37213269     0.16210
O2734       O  0.99782735  0.15527449  0.40198450    -0.60820
H2735       H  0.00457095  0.14443395  0.42095707     0.43210
H2736       H  0.00966590  0.10259270  0.26957444     0.43170
C2737       C  0.90379004  0.11108235  0.56543630    -0.05900
C2738       C  0.89587932  0.13815188  0.56985672    -0.33330
C2739       C  0.88445954  0.14687289  0.60031702     0.35920
C2740       C  0.88121161  0.12842934  0.62656835    -0.06260
C2741       C  0.89195738  0.10243653  0.62325151    -0.33230
C2742       C  0.90305242  0.09365786  0.59305010     0.35830
H2743       H  0.89619120  0.15184065  0.54884989     0.16200
O2744       O  0.87477513  0.17262332  0.60324769    -0.60720
H2745       H  0.89025187  0.08823996  0.64367879     0.16210
O2746       O  0.91187356  0.06753980  0.59019452    -0.60820
H2747       H  0.89519853  0.05616064  0.58951110     0.43210
H2748       H  0.85586084  0.17161708  0.59484703     0.43170
C2749       C  0.88060636  0.97013903  0.49551989    -0.05900
C2750       C  0.89357539  0.96842561  0.52662759    -0.33330
C2751       C  0.88848606  0.94665795  0.54791155     0.35920
C2752       C  0.87006527  0.92603756  0.53842570    -0.06260
C2753       C  0.85827626  0.92679654  0.50644420    -0.33230
C2754       C  0.86364255  0.94861443  0.48486730     0.35830
H2755       H  0.90662098  0.98479521  0.53524339     0.16200
O2756       O  0.90042820  0.94644576  0.57895082    -0.60720
H2757       H  0.84347954  0.91154395  0.49915667     0.16210
O2758       O  0.85003305  0.95007411  0.45502731    -0.60820
H2759       H  0.86242750  0.94201847  0.43824410     0.43210
H2760       H  0.88917318  0.95842380  0.59316627     0.43170
C2761       C  0.77403224  0.03511850  0.47075658    -0.05900
C2762       C  0.75859128  0.01374552  0.45705640    -0.33330
C2763       C  0.73029290  0.01521155  0.45678182     0.35920
C2764       C  0.71791649  0.03874161  0.46865166    -0.06260
C2765       C  0.73336231  0.06020175  0.48114544    -0.33230
C2766       C  0.76111583  0.05807296  0.48382717     0.35830
H2767       H  0.76847499  0.99627189  0.44631534     0.16200
O2768       O  0.71505518  0.99396148  0.44475481    -0.60720
H2769       H  0.72375272  0.07857566  0.48963784     0.16210
O2770       O  0.77555736  0.07955584  0.49675428    -0.60820
H2771       H  0.77593923  0.07658715  0.52127069     0.43210
H2772       H  0.71241592  0.99774298  0.42063841     0.43170
C2773       C  0.61249493  0.83714344  0.12173280    -0.05900
C2774       C  0.59441785  0.85889012  0.12122525    -0.33330
C2775       C  0.58631080  0.87018242  0.09083892     0.35920
C2776       C  0.59585297  0.85928863  0.06058196    -0.06260
C2777       C  0.61197223  0.83607752  0.06104431    -0.33230
C2778       C  0.62052662  0.82512548  0.09144202     0.35830
H2779       H  0.58859150  0.86869385  0.14444786     0.16200
O2780       O  0.57118617  0.89325201  0.09104387    -0.60720
H2781       H  0.61977716  0.82779547  0.03782042     0.16210
O2782       O  0.63854546  0.80423655  0.09127484    -0.60820
H2783       H  0.62720908  0.78769007  0.09338721     0.43210
H2784       H  0.55209638  0.88695865  0.08903284     0.43170
C2785       C  0.76417602  0.86635860  0.18948171    -0.05900
C2786       C  0.76988830  0.89333997  0.18172884    -0.33330
C2787       C  0.79261022  0.90044422  0.16257463     0.35920
C2788       C  0.81026500  0.88039121  0.15020813    -0.06260
C2789       C  0.80572563  0.85346935  0.16008109    -0.33230
C2790       C  0.78293565  0.84643058  0.17983373     0.35830
H2791       H  0.75604913  0.90903011  0.18960811     0.16200
O2792       O  0.79693896  0.92712613  0.15496871    -0.60720
H2793       H  0.81865374  0.83764072  0.15049012     0.16210
O2794       O  0.77796656  0.81983378  0.18701441    -0.60820
H2795       H  0.78683706  0.81685378  0.20893082     0.43210
H2796       H  0.78216110  0.93194864  0.13932613     0.43170
C2797       C  0.48083771  0.85681589  0.36554889    -0.05900
C2798       C  0.48314124  0.85563717  0.33045947    -0.33330
C2799       C  0.50850614  0.85582760  0.31473196     0.35920
C2800       C  0.53250102  0.85677583  0.33397449    -0.06260
C2801       C  0.53035871  0.85616013  0.36900797    -0.33230
C2802       C  0.50494075  0.85641239  0.38482902     0.35830
H2803       H  0.46518954  0.85550300  0.31482599     0.16200
O2804       O  0.50954156  0.85471348  0.28043062    -0.60720
H2805       H  0.54848826  0.85658149  0.38433906     0.16210
O2806       O  0.50408035  0.85680605  0.41914827    -0.60820
H2807       H  0.50699210  0.87598133  0.42564853     0.43210
H2808       H  0.50577044  0.87333898  0.27292618     0.43170
C2809       C  0.63158791  0.92821101  0.39239692    -0.05900
C2810       C  0.60547535  0.92978424  0.40674570    -0.33330
C2811       C  0.59831790  0.95177683  0.42773329     0.35920
C2812       C  0.61731634  0.97262220  0.43443024    -0.06260
C2813       C  0.64375103  0.96996259  0.42191457    -0.33230
C2814       C  0.65103415  0.94808212  0.40165842     0.35830
H2815       H  0.59011339  0.91491262  0.40006437     0.16200
O2816       O  0.57239169  0.95342494  0.43991509    -0.60720
H2817       H  0.65886005  0.98544695  0.42727441     0.16210
O2818       O  0.67709966  0.94707597  0.38970399    -0.60820
H2819       H  0.68705326  0.93577477  0.40587607     0.43210
H2820       H  0.56214534  0.96339928  0.42269062     0.43170
C2821       C  0.59656362  0.13122868  0.37627974    -0.05900
C2822       C  0.57953693  0.12737029  0.34859750    -0.33330
C2823       C  0.58732709  0.13732693  0.31722674     0.35920
C2824       C  0.61243714  0.15090106  0.31364159    -0.06260
C2825       C  0.62784104  0.15717923  0.34201716    -0.33230
C2826       C  0.61990000  0.14764768  0.37330774     0.35830
H2827       H  0.56160759  0.11466099  0.35062378     0.16200
O2828       O  0.57221956  0.13045194  0.28959066    -0.60720
H2829       H  0.64735492  0.16723344  0.33945791     0.16210
O2830       O  0.63662271  0.15194350  0.40027978    -0.60820
H2831       H  0.63445977  0.17126753  0.40623236     0.43210
H2832       H  0.56069386  0.14634230  0.28533587     0.43170
C2833       C  0.80547219  0.11061126  0.29672045    -0.05900
C2834       C  0.80469827  0.09950785  0.26426009    -0.33330
C2835       C  0.78334791  0.10571339  0.24217709     0.35920
C2836       C  0.76235876  0.12304387  0.25263877    -0.06260
C2837       C  0.76396385  0.13497311  0.28455694    -0.33230
C2838       C  0.78521849  0.12892105  0.30641512     0.35830
H2839       H  0.81979065  0.08494439  0.25668852     0.16200
O2840       O  0.78183732  0.09278433  0.21175646    -0.60720
H2841       H  0.74802931  0.14826494  0.29310739     0.16210
O2842       O  0.78564769  0.14044497  0.33776480    -0.60820
H2843       H  0.77383342  0.12873223  0.35169271     0.43210
H2844       H  0.79147967  0.10486540  0.19595302     0.43170
C2845       C  0.69374841  0.01914350  0.21844679    -0.05900
C2846       C  0.66899172  0.00542948  0.21603864    -0.33330
C2847       C  0.66831942  0.97781296  0.21132544     0.35920
C2848       C  0.69249897  0.96321576  0.21307302    -0.06260
C2849       C  0.71744007  0.97673465  0.21707069    -0.33230
C2850       C  0.71822025  0.00494279  0.21825870     0.35830
H2851       H  0.65005876  0.01633061  0.21591807     0.16200
O2852       O  0.64372768  0.96516558  0.20670498    -0.60720
H2853       H  0.73608722  0.96546298  0.21898392     0.16210
O2854       O  0.74262899  0.01836026  0.22033846    -0.60820
H2855       H  0.74840282  0.02109569  0.19681891     0.43210
H2856       H  0.64071838  0.96514106  0.18215946     0.43170
C2857       C  0.53514813  0.12236034  0.10019537    -0.05900
C2858       C  0.51377754  0.10772304  0.11504091    -0.33330
C2859       C  0.48765600  0.10813360  0.10186617     0.35920
C2860       C  0.48221585  0.12319417  0.07296714    -0.06260
C2861       C  0.50330443  0.13810552  0.05807710    -0.33230
C2862       C  0.52958292  0.13794007  0.07155460     0.35830
H2863       H  0.51722795  0.09537935  0.13686393     0.16200
O2864       O  0.46804363  0.09208414  0.11609952    -0.60720
H2865       H  0.49945623  0.14970365  0.03572154     0.16210
O2866       O  0.54945356  0.15323381  0.05665027    -0.60820
H2867       H  0.55668922  0.14172390  0.03836868     0.43210
H2868       H  0.46214488  0.10201284  0.13643883     0.43170
C2869       C  0.62519458  0.05503243  0.04347300    -0.05900
C2870       C  0.60373787  0.03713019  0.05063546    -0.33330
C2871       C  0.59753484  0.01536780  0.02915383     0.35920
C2872       C  0.61247135  0.01144590  0.99949988    -0.06260
C2873       C  0.63305305  0.03017954  0.99140200    -0.33230
C2874       C  0.63961779  0.05171120  0.01332088     0.35830
H2875       H  0.59272674  0.03913064  0.07399636     0.16200
O2876       O  0.57729478  0.99753748  0.03779912    -0.60720
H2877       H  0.64524694  0.02706879  0.96916459     0.16210
O2878       O  0.66143372  0.06808239  0.00630174    -0.60820
H2879       H  0.65368597  0.08400393  0.99502538     0.43210
H2880       H  0.58584236  0.98474949  0.05348902     0.43170
C2881       C  0.61457145  0.25267991  0.61299787    -0.05900
C2882       C  0.63510677  0.24531836  0.59066938    -0.33330
C2883       C  0.63718372  0.21890404  0.57876498     0.35920
C2884       C  0.61797279  0.19901746  0.58844918    -0.06260
C2885       C  0.59729287  0.20641945  0.61099615    -0.33230
C2886       C  0.59577025  0.23296785  0.62363741     0.35830
H2887       H  0.65043371  0.25997708  0.58334931     0.16200
O2888       O  0.65888325  0.21259355  0.55876246    -0.60720
H2889       H  0.58217341  0.19170906  0.61867490     0.16210
O2890       O  0.57544004  0.23963768  0.64551732    -0.60820
H2891       H  0.58220704  0.23439755  0.66789250     0.43210
H2892       H  0.65415329  0.21934503  0.53621702     0.43170
C2893       C  0.48653933  0.36800061  0.56831968    -0.05900
C2894       C  0.50337369  0.34599297  0.56141514    -0.33330
C2895       C  0.52950413  0.34478849  0.57545208     0.35920
C2896       C  0.53905257  0.36597138  0.59639979    -0.06260
C2897       C  0.52220883  0.38821154  0.60230556    -0.33230
C2898       C  0.49622462  0.38924194  0.58865506     0.35830
H2899       H  0.49603154  0.32949313  0.54581641     0.16200
O2900       O  0.54490122  0.32230443  0.56987932    -0.60720
H2901       H  0.52915680  0.40501830  0.61768162     0.16210
O2902       O  0.48064863  0.41160274  0.59441552    -0.60820
H2903       H  0.47346949  0.40941864  0.61743094     0.43210
H2904       H  0.55406602  0.32550060  0.54815239     0.43170
C2905       C  0.61321547  0.72980982  0.82376936    -0.05900
C2906       C  0.61071602  0.75246154  0.80286064    -0.33330
C2907       C  0.61073626  0.77867039  0.81600421     0.35920
C2908       C  0.61337251  0.78281855  0.85071792    -0.06260
C2909       C  0.61432151  0.76029283  0.87184221    -0.33230
C2910       C  0.61420654  0.73401012  0.85873886     0.35830
H2911       H  0.60976769  0.75007305  0.77590987     0.16200
O2912       O  0.61010987  0.80006398  0.79443493    -0.60720
H2913       H  0.61565419  0.76304306  0.89873073     0.16210
O2914       O  0.61563403  0.71273827  0.88040985    -0.60820
H2915       H  0.63512172  0.71124908  0.88619512     0.43210
H2916       H  0.59062190  0.80282426  0.78952513     0.43170
C2917       C  0.67296458  0.52043851  0.70377346    -0.05900
C2918       C  0.69993438  0.51291384  0.69848874    -0.33330
C2919       C  0.70770542  0.48646129  0.70432425     0.35920
C2920       C  0.68837670  0.46782261  0.71604734    -0.06260
C2921       C  0.66179850  0.47580671  0.72275563    -0.33230
C2922       C  0.65375870  0.50164009  0.71547869     0.35830
H2923       H  0.71485470  0.52745668  0.68995299     0.16200
O2924       O  0.73371296  0.47869227  0.69723647    -0.60720
H2925       H  0.64646512  0.46131890  0.73058210     0.16210
O2926       O  0.62696336  0.50823523  0.71950096    -0.60820
H2927       H  0.61850139  0.50495471  0.69729782     0.43210
H2928       H  0.74346324  0.47974170  0.71892586     0.43170
C2929       C  0.53512519  0.62844714  0.83510244    -0.05900
C2930       C  0.53306412  0.62214703  0.86919624    -0.33330
C2931       C  0.50765940  0.62035640  0.88490559     0.35920
C2932       C  0.48367983  0.62508318  0.86644839    -0.06260
C2933       C  0.48613500  0.63337714  0.83297791    -0.33230
C2934       C  0.51143452  0.63486228  0.81728951     0.35830
H2935       H  0.55108645  0.61723042  0.88331746     0.16200
O2936       O  0.50657343  0.61227716  0.91763182    -0.60720
H2937       H  0.46827522  0.63786395  0.81832264     0.16210
O2938       O  0.51280378  0.64270722  0.78445600    -0.60820
H2939       H  0.50661340  0.62677441  0.77123583     0.43210
H2940       H  0.50810105  0.62915355  0.93103616     0.43170
C2941       C  0.50719707  0.35285371  0.07082470    -0.05900
C2942       C  0.48386909  0.35420049  0.05058106    -0.33330
C2943       C  0.45797043  0.35497070  0.06470250     0.35920
C2944       C  0.45492838  0.35449516  0.09972128    -0.06260
C2945       C  0.47794293  0.35118167  0.11987639    -0.33230
C2946       C  0.50388783  0.35026164  0.10579294     0.35830
H2947       H  0.48560522  0.35613760  0.02367414     0.16200
O2948       O  0.43601602  0.35838377  0.04412818    -0.60720
H2949       H  0.47590441  0.34990934  0.14683236     0.16210
O2950       O  0.52579690  0.34727344  0.12656524    -0.60820
H2951       H  0.52834174  0.36506520  0.13774410     0.43210
H2952       H  0.43097129  0.33995921  0.03631826     0.43170
C2953       C  0.59226435  0.36934512  0.86618382    -0.05900
C2954       C  0.61716537  0.37888668  0.85422231    -0.33330
C2955       C  0.63352972  0.36268070  0.83449837     0.35920
C2956       C  0.62202312  0.34147482  0.81557831    -0.06260
C2957       C  0.59541944  0.33300458  0.82422630    -0.33230
C2958       C  0.58137595  0.34562646  0.85114182     0.35830
H2959       H  0.62543354  0.39788884  0.86296868     0.16200
O2960       O  0.66093017  0.36757797  0.83463126    -0.60720
H2961       H  0.58572880  0.31659844  0.81055804     0.16210
O2962       O  0.55699073  0.33520744  0.86162728    -0.60820
H2963       H  0.54310476  0.34484950  0.84848803     0.43210
H2964       H  0.66868226  0.35358179  0.84933082     0.43170
C2965       C  0.63019646  0.55364761  0.88712760    -0.05900
C2966       C  0.64964336  0.53368851  0.89268053    -0.33330
C2967       C  0.64389832  0.51098016  0.91208816     0.35920
C2968       C  0.61838591  0.50767300  0.92763296    -0.06260
C2969       C  0.59936970  0.52858165  0.92433694    -0.33230
C2970       C  0.60504297  0.55134548  0.90398991     0.35830
H2971       H  0.66917606  0.53492982  0.88028358     0.16200
O2972       O  0.66354577  0.49182493  0.91550554    -0.60720
H2973       H  0.57961833  0.52658618  0.93597545     0.16210
O2974       O  0.58509011  0.56985475  0.89852843    -0.60820
H2975       H  0.58788328  0.58393522  0.91599274     0.43210
H2976       H  0.66352559  0.48159297  0.89405982     0.43170
C2977       C  0.61773622  0.28210739  0.08235997    -0.05900
C2978       C  0.60000813  0.27595492  0.10889338    -0.33330
C2979       C  0.59959085  0.25009049  0.12299191     0.35920
C2980       C  0.61657314  0.22986903  0.11001124    -0.06260
C2981       C  0.63399482  0.23588492  0.08349071    -0.33230
C2982       C  0.63498000  0.26162260  0.06991616     0.35830
H2983       H  0.58644804  0.29114238  0.11873403     0.16200
O2984       O  0.58206490  0.24455164  0.14875992    -0.60720
H2985       H  0.64784019  0.22077424  0.07401220     0.16210
O2986       O  0.65387022  0.26669949  0.04546249    -0.60820
H2987       H  0.64586911  0.25925050  0.02452319     0.43210
H2988       H  0.59124033  0.25154381  0.16919240     0.43170
C2989       C  0.98652732  0.36026632  0.86680600    -0.05900
C2990       C  0.99711705  0.38382023  0.85253901    -0.33330
C2991       C  0.02345450  0.38462682  0.83986423     0.35920
C2992       C  0.03980223  0.36147730  0.84107274    -0.06260
C2993       C  0.02945889  0.33796723  0.85627110    -0.33230
C2994       C  0.00288336  0.33728409  0.86913161     0.35830
H2995       H  0.98491835  0.40188546  0.85152577     0.16200
O2996       O  0.03336977  0.40845448  0.82725609    -0.60720
H2997       H  0.04166008  0.31993183  0.85725780     0.16210
O2998       O  0.99297735  0.31408254  0.88330654    -0.60820
H2999       H  0.98372084  0.30419238  0.86481760     0.43210
H3000       H  0.02477093  0.41026881  0.80495361     0.43170
C3001       C  0.71567470  0.43112731  0.95923896    -0.05900
C3002       C  0.73174990  0.40824877  0.96278451    -0.33330
C3003       C  0.75930117  0.41079146  0.96605385     0.35920
C3004       C  0.77126473  0.43647667  0.96429950    -0.06260
C3005       C  0.75551953  0.45955562  0.95991546    -0.33230
C3006       C  0.72737010  0.45697898  0.95777513     0.35830
H3007       H  0.72285547  0.38813452  0.96337370     0.16200
O3008       O  0.77459068  0.38784195  0.96804456    -0.60720
H3009       H  0.76505830  0.47927147  0.95780713     0.16210
O3010       O  0.71156696  0.47950840  0.95570248    -0.60820
H3011       H  0.71533186  0.48711805  0.93327020     0.43210
H3012       H  0.77487114  0.38323447  0.99215400     0.43170
C3013       C  0.87279852  0.28400442  0.84617348    -0.05900
C3014       C  0.85160756  0.26597927  0.85434691    -0.33330
C3015       C  0.85085931  0.23968318  0.84163146     0.35920
C3016       C  0.87126170  0.23073810  0.81981458    -0.06260
C3017       C  0.89222640  0.24864278  0.81073042    -0.33230
C3018       C  0.89324731  0.27508636  0.82396521     0.35830
H3019       H  0.83529693  0.27222547  0.87075394     0.16200
O3020       O  0.82930322  0.22315781  0.84945035    -0.60720
H3021       H  0.90801006  0.24198859  0.79379370     0.16210
O3022       O  0.91479128  0.29154904  0.81604090    -0.60820
H3023       H  0.90981793  0.29996636  0.79448834     0.43210
H3024       H  0.83282386  0.21701293  0.87259263     0.43170
C3025       C  0.81488116  0.38396403  0.78511711    -0.05900
C3026       C  0.81143739  0.35702150  0.77394280    -0.33330
C3027       C  0.78844815  0.34902429  0.75478375     0.35920
C3028       C  0.76820964  0.36793274  0.74699975    -0.06260
C3029       C  0.77273246  0.39503455  0.75612704    -0.33230
C3030       C  0.79561000  0.40309951  0.77467570     0.35830
H3031       H  0.82554694  0.34176671  0.78199623     0.16200
O3032       O  0.78490128  0.32236577  0.74632426    -0.60720
H3033       H  0.75790573  0.41013041  0.74962256     0.16210
O3034       O  0.79856036  0.42983360  0.78339326    -0.60820
H3035       H  0.78475999  0.43316557  0.80098895     0.43210
H3036       H  0.79357159  0.32035818  0.72406047     0.43170
C3037       C  0.87118223  0.19950776  0.35321139    -0.05900
C3038       C  0.89002838  0.20552312  0.32772552    -0.33330
C3039       C  0.89138103  0.23135833  0.31368552     0.35920
C3040       C  0.87418732  0.25171278  0.32563774    -0.06260
C3041       C  0.85557984  0.24580692  0.35111517    -0.33230
C3042       C  0.85377689  0.22006418  0.36469199     0.35830
H3043       H  0.90381958  0.19023209  0.31867368     0.16200
O3044       O  0.91003417  0.23672790  0.28908879    -0.60720
H3045       H  0.84154871  0.26104526  0.35979825     0.16210
O3046       O  0.83402758  0.21502717  0.38809770    -0.60820
H3047       H  0.84152226  0.22199043  0.40956299     0.43210
H3048       H  0.90146734  0.23026658  0.26800636     0.43170
C3049       C  0.88922726  0.35861272  0.06256684    -0.05900
C3050       C  0.86109327  0.35449678  0.06531097    -0.33330
C3051       C  0.84955242  0.34229933  0.09328057     0.35920
C3052       C  0.86619343  0.33339523  0.11956741    -0.06260
C3053       C  0.89466691  0.33479104  0.11524990    -0.33230
C3054       C  0.90622883  0.34722540  0.08678330     0.35830
H3055       H  0.84767507  0.36157475  0.04587624     0.16200
O3056       O  0.82179906  0.34010522  0.09520673    -0.60720
H3057       H  0.90797242  0.32806276  0.13500478     0.16210
O3058       O  0.93386337  0.34918667  0.08373030    -0.60820
H3059       H  0.93898422  0.36615931  0.09553849     0.43210
H3060       H  0.81522768  0.35873779  0.09909455     0.43170
C3061       C  0.72738309  0.36613941  0.18246166    -0.05900
C3062       C  0.70431869  0.34904289  0.18068043    -0.33330
C3063       C  0.68167280  0.35569681  0.16038073     0.35920
C3064       C  0.68168429  0.37992314  0.14179114    -0.06260
C3065       C  0.70389335  0.39768294  0.14597310    -0.33230
C3066       C  0.72631284  0.39106129  0.16551104     0.35830
H3067       H  0.70435360  0.32995695  0.19370138     0.16200
O3068       O  0.66069690  0.33751389  0.15709367    -0.60720
H3069       H  0.70454107  0.41665974  0.13266514     0.16210
O3070       O  0.74754683  0.40914205  0.16705450    -0.60820
H3071       H  0.74539784  0.41861453  0.18880494     0.43210
H3072       H  0.64745158  0.34270933  0.17461481     0.43170
C3073       C  0.00665131  0.35697515  0.36345904    -0.05900
C3074       C  0.98387984  0.35655843  0.38482038    -0.33330
C3075       C  0.95750834  0.35519102  0.37188612     0.35920
C3076       C  0.95347073  0.35460877  0.33703936    -0.06260
C3077       C  0.97609170  0.35298567  0.31581725    -0.33230
C3078       C  0.00243832  0.35401890  0.32863069     0.35830
H3079       H  0.98634721  0.35845330  0.41168140     0.16200
O3080       O  0.93592422  0.35654975  0.39345114    -0.60720
H3081       H  0.97336899  0.35168280  0.28892661     0.16210
O3082       O  0.02380195  0.35265911  0.30668695    -0.60820
H3083       H  0.02558336  0.37102743  0.29718106     0.43210
H3084       H  0.93222585  0.33762509  0.40009336     0.43170
C3085       C  0.88040190  0.73215304  0.11243106    -0.05900
C3086       C  0.87826746  0.75502713  0.13343033    -0.33330
C3087       C  0.87735925  0.78105991  0.12018712     0.35920
C3088       C  0.87837440  0.78472241  0.08532673    -0.06260
C3089       C  0.88200276  0.76218136  0.06439163    -0.33230
C3090       C  0.88317954  0.73611797  0.07758144     0.35830
H3091       H  0.87601372  0.75280508  0.16024198     0.16200
O3092       O  0.87340782  0.80256394  0.14140507    -0.60720
H3093       H  0.88359009  0.76473002  0.03754004     0.16210
O3094       O  0.88680728  0.71473890  0.05606713    -0.60820
H3095       H  0.86900726  0.71188922  0.04495333     0.43210
H3096       H  0.89173748  0.80755050  0.14976168     0.43170
C3097       C  0.79727601  0.51830257  0.21829698    -0.05900
C3098       C  0.77192298  0.50561056  0.22095184    -0.33330
C3099       C  0.77046668  0.47754924  0.22096789     0.35920
C3100       C  0.79432237  0.46288168  0.21595420    -0.06260
C3101       C  0.81933474  0.47585289  0.21194781    -0.33230
C3102       C  0.82105574  0.50346623  0.21442305     0.35830
H3103       H  0.75358319  0.51736148  0.22303580     0.16200
O3104       O  0.74618250  0.46466078  0.22674396    -0.60720
H3105       H  0.83790685  0.46442702  0.20945742     0.16210
O3106       O  0.84593585  0.51595185  0.21159308    -0.60820
H3107       H  0.85267260  0.51799553  0.23487365     0.43210
H3108       H  0.73582677  0.46626767  0.20558419     0.43170
C3109       C  0.00747870  0.62330643  0.07158668    -0.05900
C3110       C  0.98435946  0.62315242  0.05082827    -0.33330
C3111       C  0.95825796  0.62499226  0.06434393     0.35920
C3112       C  0.95477241  0.62670868  0.09923431    -0.06260
C3113       C  0.97777365  0.62859008  0.11986120    -0.33230
C3114       C  0.00390918  0.62707448  0.10641339     0.35830
H3115       H  0.98630824  0.62049655  0.02399937     0.16200
O3116       O  0.93630902  0.62296173  0.04337380    -0.60720
H3117       H  0.97548649  0.63061083  0.14674652     0.16210
O3118       O  0.02569150  0.62896089  0.12770828    -0.60820
H3119       H  0.02738305  0.61078576  0.13768357     0.43210
H3120       H  0.93303200  0.64161882  0.03565700     0.43170
C3121       C  0.85454981  0.55846367  0.03683701    -0.05900
C3122       C  0.83750956  0.53565332  0.03305544    -0.33330
C3123       C  0.84551214  0.51281867  0.01504735     0.35920
C3124       C  0.87115568  0.51188152  0.99922783    -0.06260
C3125       C  0.88748970  0.53541841  0.00028579    -0.33230
C3126       C  0.87944556  0.55849457  0.01905414     0.35830
H3127       H  0.81801765  0.53478256  0.04555593     0.16200
O3128       O  0.82804923  0.49106694  0.01388057    -0.60720
H3129       H  0.90701090  0.53552824  0.98785801     0.16210
O3130       O  0.89681616  0.58017351  0.02136723    -0.60820
H3131       H  0.89122597  0.59244370  0.00318907     0.43210
H3132       H  0.81732952  0.49338501  0.99312058     0.43170
C3133       C  0.98592190  0.62878506  0.56602895    -0.05900
C3134       C  0.00846214  0.62060262  0.54693413    -0.33330
C3135       C  0.03450718  0.61999505  0.56101662     0.35920
C3136       C  0.03835859  0.62739640  0.59475557    -0.06260
C3137       C  0.01629156  0.63693025  0.61333543    -0.33230
C3138       C  0.99031189  0.63789089  0.59924161     0.35830
H3139       H  0.00575183  0.61323822  0.52153849     0.16200
O3140       O  0.05561995  0.61005477  0.54243930    -0.60720
H3141       H  0.01914073  0.64332645  0.63911591     0.16210
O3142       O  0.96934852  0.64768284  0.61823042    -0.60820
H3143       H  0.96510635  0.63330730  0.63461573     0.43210
H3144       H  0.06296735  0.62578622  0.53007212     0.43170
C3145       C  0.88511172  0.61966078  0.37270245    -0.05900
C3146       C  0.85780504  0.62728637  0.37047502    -0.33330
C3147       C  0.84794805  0.64102763  0.34276897     0.35920
C3148       C  0.86540359  0.64750135  0.31607997    -0.06260
C3149       C  0.89336342  0.64207895  0.31951313    -0.33230
C3150       C  0.90330451  0.62836916  0.34781024     0.35830
H3151       H  0.84366987  0.62198510  0.39020495     0.16200
O3152       O  0.82090446  0.64732558  0.34149618    -0.60720
H3153       H  0.90718904  0.64666908  0.29921412     0.16210
O3154       O  0.93034730  0.62248946  0.35000871    -0.60820
H3155       H  0.93234395  0.60487100  0.33837103     0.43210
H3156       H  0.81116730  0.62990372  0.33800888     0.43170
C3157       C  0.86955248  0.46987487  0.44062324    -0.05900
C3158       C  0.88931240  0.45062900  0.43217461    -0.33330
C3159       C  0.88254089  0.42775083  0.41207483     0.35920
C3160       C  0.85562950  0.42367305  0.40048943    -0.06260
C3161       C  0.83580095  0.44184708  0.41136975    -0.33230
C3162       C  0.84252294  0.46458075  0.43077698     0.35830
H3163       H  0.91023332  0.45411316  0.43940848     0.16200
O3164       O  0.90278291  0.41096904  0.40151500    -0.60720
H3165       H  0.81500310  0.43934598  0.40300721     0.16210
O3166       O  0.82240967  0.48228073  0.43893197    -0.60820
H3167       H  0.82128641  0.49430665  0.41929103     0.43210
H3168       H  0.90439663  0.39732968  0.41940778     0.43170
C3169       C  0.87983678  0.70144053  0.58419242    -0.05900
C3170       C  0.87942512  0.70489082  0.61901732    -0.33330
C3171       C  0.87782268  0.73069397  0.63335461     0.35920
C3172       C  0.87714867  0.75379489  0.61268856    -0.06260
C3173       C  0.87959197  0.75020767  0.57785495    -0.33230
C3174       C  0.88068355  0.72437702  0.56360472     0.35830
H3175       H  0.87893113  0.68745050  0.63522216     0.16200
O3176       O  0.87634536  0.73288986  0.66755537    -0.60720
H3177       H  0.87968497  0.76741606  0.56129556     0.16210
O3178       O  0.88279069  0.72175464  0.52948371    -0.60820
H3179       H  0.86434438  0.72524358  0.52072428     0.43210
H3180       H  0.85708741  0.72911346  0.67318792     0.43170
C3181       C  0.81349331  0.60010290  0.64777634    -0.05900
C3182       C  0.79389932  0.58017106  0.65558984    -0.33330
C3183       C  0.76906195  0.58670735  0.67065040     0.35920
C3184       C  0.76315500  0.61355804  0.67947676    -0.06260
C3185       C  0.78305748  0.63353210  0.67337153    -0.33230
C3186       C  0.80781589  0.62709867  0.65725202     0.35830
H3187       H  0.79733325  0.55926073  0.64888804     0.16200
O3188       O  0.75074596  0.56643174  0.67723119    -0.60720
H3189       H  0.77901541  0.65433498  0.68005041     0.16210
O3190       O  0.82541004  0.64761559  0.64907702    -0.60820
H3191       H  0.83754294  0.64972568  0.66873182     0.43210
H3192       H  0.74042116  0.56381116  0.65612970     0.43170
C3193       C  0.50686298  0.62765178  0.36373775    -0.05900
C3194       C  0.50412075  0.62910851  0.32874682    -0.33330
C3195       C  0.47858170  0.62819414  0.31356612     0.35920
C3196       C  0.45497342  0.62618944  0.33333467    -0.06260
C3197       C  0.45748881  0.62688851  0.36831083    -0.33230
C3198       C  0.48305768  0.62760571  0.38357131     0.35830
H3199       H  0.52186811  0.62980131  0.31277123     0.16200
O3200       O  0.47695599  0.62947310  0.27932858    -0.60720
H3201       H  0.43958055  0.62571153  0.38398155     0.16210
O3202       O  0.48435064  0.62665297  0.41782785    -0.60820
H3203       H  0.48475733  0.64578362  0.42530714     0.43210
H3204       H  0.48157806  0.61112958  0.27116631     0.43170
C3205       C  0.59810002  0.62486435  0.56184242    -0.05900
C3206       C  0.62280419  0.63920854  0.55975042    -0.33330
C3207       C  0.63348053  0.65312793  0.58731035     0.35920
C3208       C  0.61944745  0.65310490  0.61781164    -0.06260
C3209       C  0.59343203  0.64089219  0.61916709    -0.33230
C3210       C  0.58289614  0.62643423  0.59147297     0.35830
H3211       H  0.63479616  0.63847352  0.53710444     0.16200
O3212       O  0.65863427  0.66502168  0.58488383    -0.60720
H3213       H  0.58231135  0.64046525  0.64253638     0.16210
O3214       O  0.55868282  0.61278219  0.59425453    -0.60820
H3215       H  0.56338061  0.59493893  0.60359346     0.43210
H3216       H  0.65510220  0.68407905  0.57903416     0.43170
C3217       C  0.61841949  0.47209647  0.50041264    -0.05900
C3218       C  0.64540496  0.46972502  0.51116506    -0.33330
C3219       C  0.65415077  0.44744318  0.52947633     0.35920
C3220       C  0.63578492  0.42660287  0.53853848    -0.06260
C3221       C  0.60899099  0.42803142  0.52608311    -0.33230
C3222       C  0.60032553  0.45047846  0.50701846     0.35830
H3223       H  0.65992867  0.48568086  0.50577166     0.16200
O3224       O  0.68065685  0.44700377  0.53990211    -0.60720
H3225       H  0.59429265  0.41261702  0.53284488     0.16210
O3226       O  0.57388809  0.45168039  0.49657814    -0.60820
H3227       H  0.56404942  0.46066545  0.51515568     0.43210
H3228       H  0.69036270  0.43649499  0.52249618     0.43170
C3229       C  0.71435780  0.52199633  0.46943808    -0.05900
C3230       C  0.73295229  0.51554254  0.44397962    -0.33330
C3231       C  0.76050421  0.51847809  0.44975930     0.35920
C3232       C  0.76954767  0.52466792  0.48216902    -0.06260
C3233       C  0.75099914  0.52468476  0.50896940    -0.33230
C3234       C  0.72334263  0.52376093  0.50275174     0.35830
H3235       H  0.72641455  0.51249793  0.41831605     0.16200
O3236       O  0.77799233  0.51765032  0.42313726    -0.60720
H3237       H  0.75761529  0.52871587  0.53440433     0.16210
O3238       O  0.70571551  0.52826666  0.52872841    -0.60820
H3239       H  0.70018144  0.51005864  0.53643927     0.43210
H3240       H  0.77561529  0.53501664  0.41134907     0.43170
C3241       C  0.61561618  0.69887982  0.35093609    -0.05900
C3242       C  0.62798909  0.72046887  0.36849944    -0.33330
C3243       C  0.62778079  0.74666678  0.35607722     0.35920
C3244       C  0.61515437  0.75200587  0.32529027    -0.06260
C3245       C  0.60217142  0.73071549  0.30793358    -0.33230
C3246       C  0.60221771  0.70436562  0.32052738     0.35830
H3247       H  0.63842670  0.71713876  0.39194163     0.16200
O3248       O  0.64174781  0.76649020  0.37316657    -0.60720
H3249       H  0.59233436  0.73442199  0.28417905     0.16210
O3250       O  0.58930709  0.68425793  0.30270819    -0.60820
H3251       H  0.60306196  0.67746824  0.28669285     0.43210
H3252       H  0.62907901  0.77286948  0.39074129     0.43170
C3253       C  0.67839752  0.59913161  0.28573200    -0.05900
C3254       C  0.69797286  0.58004731  0.27634084    -0.33330
C3255       C  0.72097464  0.58731865  0.25771238     0.35920
C3256       C  0.72496254  0.61416197  0.24698984    -0.06260
C3257       C  0.70446321  0.63299877  0.25399805    -0.33230
C3258       C  0.68145070  0.62572926  0.27341751     0.35830
H3259       H  0.69625182  0.55945860  0.28512605     0.16200
O3260       O  0.73969959  0.56786503  0.25022801    -0.60720
H3261       H  0.70702367  0.65372980  0.24610224     0.16210
O3262       O  0.66349912  0.64536391  0.28268209    -0.60820
H3263       H  0.64928360  0.64497313  0.26512946     0.43210
H3264       H  0.75044003  0.56556876  0.27099180     0.43170
loop_ 
_geom_bond_atom_site_label_1 
_geom_bond_atom_site_label_2 
_geom_bond_distance 
_geom_bond_site_symmetry_2 
_ccdc_geom_bond_type 
Zr1           O2   2.436       .  S
Zr1           O3   2.438       .  S
Zr1           O4   2.430       .  S
Zr1           O7   2.504       .  S
Zr1           O9   2.390       .  S
Zr1          O10   2.371       .  S
Zr1          O11   2.436       .  S
Zr1          O12   2.416       .  S
O2           H58   0.990       .  S
O2           H66   0.990       .  S
O3           C23   1.285       .  A
O4           C25   1.287       .  A
O5          Zr15   2.421       .  S
O5           C24   1.284       .  A
O6          Zr14   2.441       .  S
O6           C25   1.287       .  A
O7           C24   1.298       .  A
O8          Zr16   2.409       .  S
O8           C23   1.281       .  A
O9          Zr14   2.402       .  S
O9          Zr16   2.381       .  S
O10         Zr15   2.373       .  S
O10         Zr16   2.337       .  S
O10          H45   0.964       .  S
O11         Zr14   2.405       .  S
O11         Zr31   2.402       .  S
O11          H48   0.965       .  S
O12         Zr15   2.381       .  S
O12         Zr31   2.439       .  S
Zr13         O38   2.443       .  S
Zr13         O32   2.436       .  S
Zr13         O40   2.414       .  S
Zr13         O28   2.458       .  S
Zr13         O19   2.411       .  S
Zr13         O20   2.392       .  S
Zr13         O21   2.382       .  S
Zr13         O22   2.376       .  S
Zr14         O33   2.434       .  S
Zr14         O26   2.434       .  S
Zr14         O27   2.457       .  S
Zr14         O20   2.400       .  S
Zr14         O21   2.405       .  S
Zr15         O17   2.433       .  S
Zr15         O39   2.436       .  S
Zr15         O41   2.376       .  S
Zr15         O19   2.397       .  S
Zr15         O22   2.383       .  S
Zr16         O42   2.436       .  S
Zr16         O43   2.435       .  S
Zr16         O18   2.438       .  S
Zr16         O19   2.399       .  S
Zr16         O20   2.341       .  S
O17          H54   0.990       .  S
O18          H49   0.990       .  S
O18          H63   0.990       .  S
O20          H46   0.958       .  S
O21         Zr31   2.390       .  S
O22         Zr31   2.342       .  S
O22          H47   0.964       .  S
C23        C3241   1.488       .  S
C24        C3253   1.504       .  S
C25        C3193   1.489       .  S
O26          H62   0.990       .  S
O27          C29   1.289       .  A
O28          C29   1.288       .  A
C29        C3205   1.477       .  S
O30         Zr31   2.439       .  S
O30          H59   0.990       .  S
Zr31         O34   2.436       .  S
Zr31         O35   2.438       .  S
Zr31         O36   2.489       .  S
O32          C37   1.286       .  A
O33          H50   0.990       .  S
O33          H65   0.990       .  S
O34          H51   0.990       .  S
O35          H55   0.990       .  S
O35          H64   0.990       .  S
O36          C37   1.293       .  A
C37        C3217   1.503       .  S
O38          H57   0.990       .  S
O38          H61   0.990       .  S
O39          H53   0.990       .  S
O39          H60   0.990       .  S
O40          C44   1.282       .  A
O41          C44   1.276       .  A
O42          H52   0.990       .  S
O43          H56   0.990       .  S
C44        C3229   1.461       .  S
Zr67         O68   2.435       .  S
Zr67         O69   2.429       .  S
Zr67         O70   2.430       .  S
Zr67         O73   2.495       .  S
Zr67         O75   2.392       .  S
Zr67         O76   2.384       .  S
Zr67         O77   2.434       .  S
Zr67         O78   2.415       .  S
O68         H124   0.990       .  S
O68         H132   0.990       .  S
O69          C89   1.284       .  A
O70          C91   1.287       .  A
O71         Zr81   2.416       .  S
O71          C90   1.276       .  A
O72         Zr80   2.457       .  S
O72          C91   1.291       .  A
O73          C90   1.292       .  A
O74         Zr82   2.421       .  S
O74          C89   1.282       .  A
O75         Zr80   2.403       .  S
O75         Zr82   2.379       .  S
O76         Zr81   2.373       .  S
O76         Zr82   2.341       .  S
O76         H111   0.965       .  S
O77         Zr80   2.408       .  S
O77         Zr97   2.396       .  S
O77         H114   0.964       .  S
O78         Zr81   2.385       .  S
O78         Zr97   2.434       .  S
Zr79        O104   2.439       .  S
Zr79         O98   2.436       .  S
Zr79        O106   2.440       .  S
Zr79         O94   2.446       .  S
Zr79         O85   2.413       .  S
Zr79         O86   2.401       .  S
Zr79         O87   2.383       .  S
Zr79         O88   2.374       .  S
Zr80         O99   2.434       .  S
Zr80         O92   2.435       .  S
Zr80         O93   2.473       .  S
Zr80         O86   2.402       .  S
Zr80         O87   2.406       .  S
Zr81         O83   2.435       .  S
Zr81        O105   2.439       .  S
Zr81        O107   2.365       .  S
Zr81         O85   2.401       .  S
Zr81         O88   2.397       .  S
Zr82        O108   2.436       .  S
Zr82        O109   2.436       .  S
Zr82         O84   2.438       .  S
Zr82         O85   2.413       .  S
Zr82         O86   2.342       .  S
O83         H120   0.991       .  S
O84         H115   0.990       .  S
O84         H129   0.990       .  S
O86         H112   0.960       .  S
O87         Zr97   2.389       .  S
O88         Zr97   2.343       .  S
O88         H113   0.964       .  S
C89        C3169   1.476       .  S
C90        C3181   1.510       .  S
C91        C3133   1.489       .  S
O92         H128   0.990       .  S
O93          C95   1.292       .  A
O94          C95   1.289       .  A
C95        C3145   1.483       .  S
O96         Zr97   2.439       .  S
O96         H125   0.990       .  S
Zr97        O100   2.436       .  S
Zr97        O101   2.439       .  S
Zr97        O102   2.481       .  S
O98         C103   1.285       .  A
O99         H116   0.990       .  S
O99         H131   0.990       .  S
O100        H117   0.990       .  S
O101        H121   0.990       .  S
O101        H130   0.990       .  S
O102        C103   1.291       .  A
C103       C3157   1.503       .  S
O104        H123   0.990       .  S
O104        H127   0.990       .  S
O105        H119   0.990       .  S
O105        H126   0.989       .  S
O106        C110   1.286       .  A
O107        C110   1.269       .  A
O108        H118   0.990       .  S
O109        H122   0.990       .  S
C110       C3232   1.455       .  S
Zr133       O134   2.435       .  S
Zr133       O135   2.432       .  S
Zr133       O136   2.435       .  S
Zr133       O139   2.501       .  S
Zr133       O141   2.394       .  S
Zr133       O142   2.371       .  S
Zr133       O143   2.432       .  S
Zr133       O144   2.414       .  S
O134        H190   0.990       .  S
O134        H198   0.990       .  S
O135        C155   1.284       .  A
O136        C157   1.287       .  A
O137       Zr147   2.412       .  S
O137        C156   1.282       .  A
O138       Zr146   2.437       .  S
O138        C157   1.288       .  A
O139        C156   1.296       .  A
O140       Zr148   2.419       .  S
O140        C155   1.282       .  A
O141       Zr146   2.400       .  S
O141       Zr148   2.377       .  S
O142       Zr147   2.374       .  S
O142       Zr148   2.350       .  S
O142        H177   0.964       .  S
O143       Zr146   2.412       .  S
O143       Zr163   2.404       .  S
O143        H180   0.965       .  S
O144       Zr147   2.384       .  S
O144       Zr163   2.433       .  S
Zr145       O170   2.440       .  S
Zr145       O164   2.432       .  S
Zr145       O172   2.396       .  S
Zr145       O160   2.427       .  S
Zr145       O151   2.410       .  S
Zr145       O152   2.397       .  S
Zr145       O153   2.374       .  S
Zr145       O154   2.379       .  S
Zr146       O165   2.434       .  S
Zr146       O158   2.434       .  S
Zr146       O159   2.462       .  S
Zr146       O152   2.406       .  S
Zr146       O153   2.399       .  S
Zr147       O149   2.435       .  S
Zr147       O171   2.437       .  S
Zr147       O173   2.390       .  S
Zr147       O151   2.396       .  S
Zr147       O154   2.385       .  S
Zr148       O174   2.436       .  S
Zr148       O175   2.435       .  S
Zr148       O150   2.437       .  S
Zr148       O151   2.399       .  S
Zr148       O152   2.359       .  S
O149        H186   0.990       .  S
O150        H181   0.990       .  S
O150        H195   0.990       .  S
O152        H178   0.964       .  S
O153       Zr163   2.383       .  S
O154       Zr163   2.338       .  S
O154        H179   0.963       .  S
C155       C3112   1.478       .  S
C156       C3121   1.511       .  S
C157       C3085   1.490       .  S
O158        H194   0.990       .  S
O159        C161   1.288       .  A
O160        C161   1.281       .  A
C161       C3148   1.487       .  S
O162       Zr163   2.438       .  S
O162        H191   0.990       .  S
Zr163       O166   2.436       .  S
Zr163       O167   2.438       .  S
Zr163       O168   2.493       .  S
O164        C169   1.285       .  A
O165        H182   0.990       .  S
O165        H197   0.990       .  S
O166        H183   0.990       .  S
O167        H187   0.990       .  S
O167        H196   0.990       .  S
O168        C169   1.294       .  A
C169       C3256   1.502       .  S
O170        H189   0.990       .  S
O170        H193   0.990       .  S
O171        H185   0.990       .  S
O171        H192   0.990       .  S
O172        C176   1.276       .  A
O173        C176   1.270       .  A
O174        H184   0.990       .  S
O175        H188   0.990       .  S
C176       C3097   1.420       .  S
Zr199       O200   2.436       .  S
Zr199       O201   2.433       .  S
Zr199       O202   2.422       .  S
Zr199       O205   2.497       .  S
Zr199       O207   2.391       .  S
Zr199       O208   2.369       .  S
Zr199       O209   2.434       .  S
Zr199       O210   2.414       .  S
O200        H256   0.990       .  S
O200        H264   0.990       .  S
O201        C221   1.284       .  A
O202        C223   1.285       .  A
O203       Zr213   2.427       .  S
O203        C222   1.285       .  A
O204       Zr212   2.440       .  S
O204        C223   1.287       .  A
O205        C222   1.296       .  A
O206       Zr214   2.416       .  S
O206        C221   1.282       .  A
O207       Zr212   2.397       .  S
O207       Zr214   2.376       .  S
O208       Zr213   2.377       .  S
O208       Zr214   2.348       .  S
O208        H243   0.964       .  S
O209       Zr212   2.412       .  S
O209       Zr229   2.402       .  S
O209        H246   0.964       .  S
O210       Zr213   2.380       .  S
O210       Zr229   2.438       .  S
Zr211       O236   2.448       .  S
Zr211       O230   2.425       .  S
Zr211       O238   2.399       .  S
Zr211       O226   2.430       .  S
Zr211       O217   2.406       .  S
Zr211       O218   2.393       .  S
Zr211       O219   2.373       .  S
Zr211       O220   2.376       .  S
Zr212       O231   2.434       .  S
Zr212       O224   2.435       .  S
Zr212       O225   2.460       .  S
Zr212       O218   2.405       .  S
Zr212       O219   2.400       .  S
Zr213       O215   2.434       .  S
Zr213       O237   2.437       .  S
Zr213       O239   2.389       .  S
Zr213       O217   2.400       .  S
Zr213       O220   2.387       .  S
Zr214       O240   2.437       .  S
Zr214       O241   2.435       .  S
Zr214       O216   2.437       .  S
Zr214       O217   2.396       .  S
Zr214       O218   2.360       .  S
O215        H252   0.990       .  S
O216        H247   0.990       .  S
O216        H261   0.990       .  S
O218        H244   0.964       .  S
O219       Zr229   2.382       .  S
O220       Zr229   2.337       .  S
O220        H245   0.963       .  S
C221       C3076   1.477       .  S
C222       C3160   1.501       .  S
C223       C3040   1.469       .  S
O224        H260   0.990       .  S
O225        C227   1.288       .  A
O226        C227   1.283       .  A
C227       C3052   1.491       .  S
O228       Zr229   2.439       .  S
O228        H257   0.990       .  S
Zr229       O232   2.436       .  S
Zr229       O233   2.437       .  S
Zr229       O234   2.498       .  S
O230        C235   1.285       .  A
O231        H248   0.990       .  S
O231        H263   0.990       .  S
O232        H249   0.990       .  S
O233        H253   0.990       .  S
O233        H262   0.990       .  S
O234        C235   1.295       .  A
C235       C3061   1.507       .  S
O236        H255   0.990       .  S
O236        H259   0.990       .  S
O237        H251   0.990       .  S
O237        H258   0.990       .  S
O238        C242   1.278       .  A
O239        C242   1.273       .  A
O240        H250   0.990       .  S
O241        H254   0.990       .  S
C242       C3100   1.422       .  S
Zr265       O266   2.436       .  S
Zr265       O267   2.448       .  S
Zr265       O268   2.439       .  S
Zr265       O271   2.507       .  S
Zr265       O273   2.393       .  S
Zr265       O274   2.372       .  S
Zr265       O275   2.436       .  S
Zr265       O276   2.421       .  S
O266        H322   0.990       .  S
O266        H330   0.990       .  S
O267        C287   1.287       .  A
O268        C289   1.288       .  A
O269       Zr279   2.417       .  S
O269        C288   1.283       .  A
O270       Zr278   2.445       .  S
O270        C289   1.287       .  A
O271        C288   1.299       .  A
O272       Zr280   2.418       .  S
O272        C287   1.282       .  A
O273       Zr278   2.408       .  S
O273       Zr280   2.378       .  S
O274       Zr279   2.381       .  S
O274       Zr280   2.338       .  S
O274        H309   0.964       .  S
O275       Zr278   2.415       .  S
O275       Zr295   2.402       .  S
O275        H312   0.964       .  S
O276       Zr279   2.386       .  S
O276       Zr295   2.437       .  S
Zr277       O302   2.444   1_556  S
Zr277       O296   2.428       .  S
Zr277       O304   2.390       .  S
Zr277       O292   2.445   1_556  S
Zr277       O283   2.416       .  S
Zr277       O284   2.401       .  S
Zr277       O285   2.372       .  S
Zr277       O286   2.380       .  S
Zr278       O297   2.433       .  S
Zr278       O290   2.434       .  S
Zr278       O291   2.474   1_556  S
Zr278       O284   2.403       .  S
Zr278       O285   2.409       .  S
Zr279       O281   2.434       .  S
Zr279       O303   2.437       .  S
Zr279       O305   2.399       .  S
Zr279       O283   2.397       .  S
Zr279       O286   2.386       .  S
Zr280       O306   2.436       .  S
Zr280       O307   2.436       .  S
Zr280       O282   2.437       .  S
Zr280       O283   2.399       .  S
Zr280       O284   2.350       .  S
O281        H318   0.990       .  S
O282        H313   0.990       .  S
O282        H327   0.990       .  S
O284        H310   0.961       .  S
O285       Zr295   2.395       .  S
O286       Zr295   2.342       .  S
O286        H311   0.963       .  S
C287       C3013   1.492       .  S
C288       C3025   1.504       .  S
C289       C2989   1.468       .  S
O290        H326   0.990       .  S
O291        C293   1.291       .  A
O292        C293   1.285       .  A
C293       C3049   1.484       .  S
O294       Zr295   2.439       .  S
O294        H323   0.990       .  S
Zr295       O298   2.436       .  S
Zr295       O299   2.438       .  S
Zr295       O300   2.489       .  S
O296        C301   1.283       .  A
O297        H314   0.990       .  S
O297        H329   0.990       .  S
O298        H315   0.990       .  S
O299        H319   0.990       .  S
O299        H328   0.990       .  S
O300        C301   1.292       .  A
C301       C3124   1.505       .  S
O302        H321   0.989       .  S
O302        H325   0.990       .  S
O303        H317   0.990       .  S
O303        H324   0.990       .  S
O304        C308   1.277       .  A
O305        C308   1.270       .  A
O306        H316   0.990       .  S
O307        H320   0.990       .  S
C308       C3004   1.428       .  S
Zr331       O332   2.436       .  S
Zr331       O333   2.443       .  S
Zr331       O334   2.429       .  S
Zr331       O337   2.506       .  S
Zr331       O339   2.397       .  S
Zr331       O340   2.368       .  S
Zr331       O341   2.439       .  S
Zr331       O342   2.421       .  S
O332        H388   0.990       .  S
O332        H396   0.990       .  S
O333        C353   1.286       .  A
O334        C355   1.286       .  A
O335       Zr345   2.418       .  S
O335        C354   1.282       .  A
O336       Zr344   2.432   1_554  S
O336        C355   1.287       .  A
O337        C354   1.297       .  A
O338       Zr346   2.393   1_554  S
O338        C353   1.276       .  A
O339       Zr344   2.407   1_554  S
O339       Zr346   2.371   1_554  S
O340       Zr345   2.387       .  S
O340       Zr346   2.362   1_554  S
O340        H375   0.964       .  S
O341       Zr344   2.416   1_554  S
O341       Zr361   2.409       .  S
O341        H378   0.965       .  S
O342       Zr345   2.381       .  S
O342       Zr361   2.440       .  S
Zr343       O368   2.446       .  S
Zr343       O362   2.423       .  S
Zr343       O370   2.395       .  S
Zr343       O358   2.438       .  S
Zr343       O349   2.410       .  S
Zr343       O350   2.405       .  S
Zr343       O351   2.376       .  S
Zr343       O352   2.401       .  S
Zr344       O363   2.434       .  S
Zr344       O356   2.434       .  S
Zr344       O357   2.478       .  S
Zr344       O350   2.400       .  S
Zr344       O351   2.397       .  S
Zr345       O347   2.435       .  S
Zr345       O369   2.439       .  S
Zr345       O371   2.390   1_554  S
Zr345       O349   2.379   1_554  S
Zr345       O352   2.375   1_554  S
Zr346       O372   2.436   1_556  S
Zr346       O373   2.438       .  S
Zr346       O348   2.438       .  S
Zr346       O349   2.367       .  S
Zr346       O350   2.365       .  S
O347        H384   0.990       .  S
O348        H379   0.990       .  S
O348        H393   0.990       .  S
O350        H376   0.963       .  S
O351       Zr361   2.382   1_556  S
O352       Zr361   2.351   1_556  S
O352        H377   0.965       .  S
C353       C2977   1.484       .  S
C354       C3064   1.507       .  S
C355       C2941   1.485       .  S
O356        H392   0.990       .  S
O357        C359   1.289       .  A
O358        C359   1.283       .  A
C359       C2953   1.498       .  S
O360       Zr361   2.440       .  S
O360        H389   0.990       .  S
Zr361       O364   2.436   1_554  S
Zr361       O365   2.438       .  S
Zr361       O366   2.495   1_554  S
O362        C367   1.286       .  A
O363        H380   0.990       .  S
O363        H395   0.990       .  S
O364        H381   0.990       .  S
O365        H385   0.990       .  S
O365        H394   0.990       .  S
O366        C367   1.295       .  A
C367       C2968   1.502       .  S
O368        H387   0.988       .  S
O368        H391   0.989       .  S
O369        H383   0.990       .  S
O369        H390   0.990       .  S
O370        C374   1.265       .  A
O371        C374   1.271       .  A
O372        H382   0.990       .  S
O373        H386   0.990       .  S
C374       C3001   1.434       .  S
Zr397       O398   2.436       .  S
Zr397       O399   2.432       .  S
Zr397       O400   2.443       .  S
Zr397       O403   2.489       .  S
Zr397       O405   2.395       .  S
Zr397       O406   2.376       .  S
Zr397       O407   2.427       .  S
Zr397       O408   2.416       .  S
O398        H454   0.990       .  S
O398        H462   0.990       .  S
O399        C419   1.284       .  A
O400        C421   1.288       .  A
O401       Zr411   2.425       .  S
O401        C420   1.282       .  A
O402       Zr410   2.416       .  S
O402        C421   1.283       .  A
O403        C420   1.294       .  A
O404       Zr412   2.422       .  S
O404        C419   1.282       .  A
O405       Zr410   2.404       .  S
O405       Zr412   2.367       .  S
O406       Zr411   2.387       .  S
O406       Zr412   2.358       .  S
O406        H441   0.965       .  S
O407       Zr410   2.409       .  S
O407       Zr427   2.401       .  S
O407        H444   0.966       .  S
O408       Zr411   2.389       .  S
O408       Zr427   2.425       .  S
Zr409       O434   2.441       .  S
Zr409       O428   2.466       .  S
Zr409       O436   2.392       .  S
Zr409       O424   2.443       .  S
Zr409       O415   2.436       .  S
Zr409       O416   2.411       .  S
Zr409       O417   2.376       .  S
Zr409       O418   2.404       .  S
Zr410       O429   2.433       .  S
Zr410       O422   2.434       .  S
Zr410       O423   2.448       .  S
Zr410       O416   2.407       .  S
Zr410       O417   2.400       .  S
Zr411       O413   2.436       .  S
Zr411       O435   2.440       .  S
Zr411       O437   2.412       .  S
Zr411       O415   2.383       .  S
Zr411       O418   2.392       .  S
Zr412       O438   2.436       .  S
Zr412       O439   2.435       .  S
Zr412       O414   2.437       .  S
Zr412       O415   2.379       .  S
Zr412       O416   2.368       .  S
O413        H450   0.990       .  S
O414        H445   0.990       .  S
O414        H459   0.990       .  S
O416        H442   0.962       .  S
O417       Zr427   2.393       .  S
O418       Zr427   2.368       .  S
O418        H443   0.965       .  S
C419       C2929   1.479       .  S
C420       C2965   1.498       .  S
C421       C2905   1.488       .  S
O422        H458   0.990       .  S
O423        C425   1.284       .  A
O424        C425   1.282       .  A
C425       C3208   1.480       .  S
O426       Zr427   2.439       .  S
O426        H455   0.990       .  S
Zr427       O430   2.437       .  S
Zr427       O431   2.439       .  S
Zr427       O432   2.456       .  S
O428        C433   1.291       .  A
O429        H446   0.990       .  S
O429        H461   0.990       .  S
O430        H447   0.990       .  S
O431        H451   0.990       .  S
O431        H460   0.990       .  S
O432        C433   1.286       .  A
C433       C3184   1.499       .  S
O434        H453   0.990       .  S
O434        H457   0.990       .  S
O435        H449   0.990       .  S
O435        H456   0.990       .  S
O436        C440   1.265       .  A
O437        C440   1.272       .  A
O438        H448   0.990       .  S
O439        H452   0.990       .  S
C440       C2917   1.442       .  S
Zr463       O464   2.436       .  S
Zr463       O465   2.434       .  S
Zr463       O466   2.444       .  S
Zr463       O469   2.513       .  S
Zr463       O471   2.395       .  S
Zr463       O472   2.372       .  S
Zr463       O473   2.434       .  S
Zr463       O474   2.418       .  S
O464        H520   0.990       .  S
O464        H528   0.990       .  S
O465        C485   1.284       .  A
O466        C487   1.290       .  A
O467       Zr477   2.420       .  S
O467        C486   1.283       .  A
O468       Zr476   2.440       .  S
O468        C487   1.286       .  A
O469        C486   1.300       .  A
O470       Zr478   2.422       .  S
O470        C485   1.283       .  A
O471       Zr476   2.405       .  S
O471       Zr478   2.377       .  S
O472       Zr477   2.382       .  S
O472       Zr478   2.342       .  S
O472        H507   0.964       .  S
O473       Zr476   2.413       .  S
O473       Zr493   2.399       .  S
O473        H510   0.964       .  S
O474       Zr477   2.385       .  S
O474       Zr493   2.437       .  S
Zr475       O500   2.436       .  S
Zr475       O494   2.438       .  S
Zr475       O502   2.399       .  S
Zr475       O490   2.453       .  S
Zr475       O481   2.410       .  S
Zr475       O482   2.402       .  S
Zr475       O483   2.375       .  S
Zr475       O484   2.382       .  S
Zr476       O495   2.434       .  S
Zr476       O488   2.435       .  S
Zr476       O489   2.462       .  S
Zr476       O482   2.407       .  S
Zr476       O483   2.406       .  S
Zr477       O479   2.433       .  S
Zr477       O501   2.438       .  S
Zr477       O503   2.402       .  S
Zr477       O481   2.399       .  S
Zr477       O484   2.388       .  S
Zr478       O504   2.436       .  S
Zr478       O505   2.436       .  S
Zr478       O480   2.437       .  S
Zr478       O481   2.395       .  S
Zr478       O482   2.358       .  S
O479        H516   0.990       .  S
O480        H511   0.990       .  S
O480        H525   0.990       .  S
O482        H508   0.963       .  S
O483       Zr493   2.387       .  S
O484       Zr493   2.343       .  S
O484        H509   0.964       .  S
C485       C2896   1.485       .  S
C486       C3220   1.508       .  S
C487       C2881   1.474       .  S
O488        H524   0.990       .  S
O489        C491   1.288       .  A
O490        C491   1.287       .  A
C491       C2956   1.501       .  S
O492       Zr493   2.439       .  S
O492        H521   0.990       .  S
Zr493       O496   2.436       .  S
Zr493       O497   2.438       .  S
Zr493       O498   2.486       .  S
O494        C499   1.286       .  A
O495        H512   0.990       .  S
O495        H527   0.990       .  S
O496        H513   0.990       .  S
O497        H517   0.990       .  S
O497        H526   0.990       .  S
O498        C499   1.292       .  A
C499       C3028   1.499       .  S
O500        H519   0.991       .  S
O500        H523   0.991       .  S
O501        H515   0.990       .  S
O501        H522   0.990       .  S
O502        C506   1.275       .  A
O503        C506   1.270       .  A
O504        H514   0.990       .  S
O505        H518   0.990       .  S
C506       C2920   1.438       .  S
Zr529       O530   2.442       .  S
Zr529       O531   2.425       .  S
Zr529       O532   2.408       .  S
Zr529       O535   2.426       .  S
Zr529       O537   2.379       .  S
Zr529       O538   2.382       .  S
Zr529       O539   2.428       .  S
Zr529       O540   2.384       .  S
O530        H586   0.990       .  S
O530        H594   0.991       .  S
O531        C551   1.281       .  A
O532        C553   1.275       .  A
O533       Zr543   2.444       .  S
O533        C552   1.284       .  A
O534       Zr542   2.413       .  S
O534        C553   1.271       .  A
O535        C552   1.283       .  A
O536       Zr544   2.459       .  S
O536        C551   1.287       .  A
O537       Zr542   2.388       .  S
O537       Zr544   2.353       .  S
O538       Zr543   2.401       .  S
O538       Zr544   2.393       .  S
O538        H573   0.966       .  S
O539       Zr542   2.408       .  S
O539       Zr559   2.401       .  S
O539        H576   0.965       .  S
O540       Zr543   2.374       .  S
O540       Zr559   2.370       .  S
Zr541       O566   2.439       .  S
Zr541       O560   2.435       .  S
Zr541       O568   2.424       .  S
Zr541       O556   2.472       .  S
Zr541       O547   2.411       .  S
Zr541       O548   2.410       .  S
Zr541       O549   2.361       .  S
Zr541       O550   2.390       .  S
Zr542       O561   2.433       .  S
Zr542       O554   2.435       .  S
Zr542       O555   2.424       .  S
Zr542       O548   2.390       .  S
Zr542       O549   2.376       .  S
Zr543       O545   2.436       .  S
Zr543       O567   2.437       .  S
Zr543       O569   2.421       .  S
Zr543       O547   2.396       .  S
Zr543       O550   2.388       .  S
Zr544       O570   2.435       .  S
Zr544       O571   2.434       .  S
Zr544       O546   2.436       .  S
Zr544       O547   2.402       .  S
Zr544       O548   2.424       .  S
O545        H582   0.990       .  S
O546        H577   0.990       .  S
O546        H591   0.990       .  S
O548        H574   0.966       .  S
O549       Zr559   2.358       .  S
O550       Zr559   2.382       .  S
O550        H575   0.966       .  S
C551       C2836   1.486       .  S
C552       C2824   1.462       .  S
C553       C2845   1.442       .  S
O554        H590   0.990       .  S
O555        C557   1.283       .  A
O556        C557   1.291       .  A
C557       C2869   1.483       .  S
O558       Zr559   2.439       .  S
O558        H587   0.990       .  S
Zr559       O562   2.437       .  S
Zr559       O563   2.438       .  S
Zr559       O564   2.416       .  S
O560        C565   1.285       .  A
O561        H578   0.990       .  S
O561        H593   0.990       .  S
O562        H579   0.990       .  S
O563        H583   0.990       .  S
O563        H592   0.990       .  S
O564        C565   1.282       .  A
C565       C2857   1.486       .  S
O566        H585   0.990       .  S
O566        H589   0.990       .  S
O567        H581   0.990       .  S
O567        H588   0.990       .  S
O568        C572   1.285       .  A
O569        C572   1.282       .  A
O570        H580   0.990       .  S
O571        H584   0.990       .  S
C572       C2980   1.468       .  S
Zr595       O596   2.441       .  S
Zr595       O597   2.439       .  S
Zr595       O598   2.406       .  S
Zr595       O601   2.432       .  S
Zr595       O603   2.377       .  S
Zr595       O604   2.382       .  S
Zr595       O605   2.430       .  S
Zr595       O606   2.393       .  S
O596        H652   0.990       .  S
O596        H660   0.991       .  S
O597        C617   1.285       .  A
O598        C619   1.275       .  A
O599       Zr609   2.457       .  S
O599        C618   1.286       .  A
O600       Zr608   2.412       .  S
O600        C619   1.271       .  A
O601        C618   1.280       .  A
O602       Zr610   2.452       .  S
O602        C617   1.285       .  A
O603       Zr608   2.386       .  S
O603       Zr610   2.357       .  S
O604       Zr609   2.403       .  S
O604       Zr610   2.391       .  S
O604        H639   0.966       .  S
O605       Zr608   2.400       .  S
O605       Zr625   2.405       .  S
O605        H642   0.963       .  S
O606       Zr609   2.370       .  S
O606       Zr625   2.373       .  S
Zr607       O632   2.439       .  S
Zr607       O626   2.440       .  S
Zr607       O634   2.432       .  S
Zr607       O622   2.486       .  S
Zr607       O613   2.414       .  S
Zr607       O614   2.413       .  S
Zr607       O615   2.362       .  S
Zr607       O616   2.393       .  S
Zr608       O627   2.434       .  S
Zr608       O620   2.434       .  S
Zr608       O621   2.410       .  S
Zr608       O614   2.391       .  S
Zr608       O615   2.380       .  S
Zr609       O611   2.436       .  S
Zr609       O633   2.437       .  S
Zr609       O635   2.426       .  S
Zr609       O613   2.397       .  S
Zr609       O616   2.395       .  S
Zr610       O636   2.435       .  S
Zr610       O637   2.434       .  S
Zr610       O612   2.436       .  S
Zr610       O613   2.395       .  S
Zr610       O614   2.425       .  S
O611        H648   0.990       .  S
O612        H643   0.990       .  S
O612        H657   0.990       .  S
O614        H640   0.966       .  S
O615       Zr625   2.362       .  S
O616       Zr625   2.379       .  S
O616        H641   0.966       .  S
C617       C2785   1.488       .  S
C618       C2773   1.468       .  S
C619       C2848   1.446       .  S
O620        H656   0.990       .  S
O621        C623   1.281       .  A
O622        C623   1.294       .  A
C623       C2809   1.500       .  S
O624       Zr625   2.439       .  S
O624        H653   0.990       .  S
Zr625       O628   2.437       .  S
Zr625       O629   2.438       .  S
Zr625       O630   2.433       .  S
O626        C631   1.286       .  A
O627        H644   0.990       .  S
O627        H659   0.990       .  S
O628        H645   0.990       .  S
O629        H649   0.990       .  S
O629        H658   0.990       .  S
O630        C631   1.285       .  A
C631       C2800   1.487       .  S
O632        H651   0.990       .  S
O632        H655   0.990       .  S
O633        H647   0.990       .  S
O633        H654   0.990       .  S
O634        C638   1.287       .  A
O635        C638   1.284       .  A
O636        H646   0.990       .  S
O637        H650   0.990       .  S
C638       C3244   1.479       .  S
Zr661       O662   2.442       .  S
Zr661       O663   2.422       .  S
Zr661       O664   2.397       .  S
Zr661       O667   2.419       .  S
Zr661       O669   2.378       .  S
Zr661       O670   2.375       .  S
Zr661       O671   2.422       .  S
Zr661       O672   2.389       .  S
O662        H718   0.990       .  S
O662        H726   0.990       .  S
O663        C683   1.282   1_545  A
O664        C685   1.275       .  A
O665       Zr675   2.448       .  S
O665        C684   1.284       .  A
O666       Zr674   2.414       .  S
O666        C685   1.273       .  A
O667        C684   1.280       .  A
O668       Zr676   2.458   1_565  S
O668        C683   1.287       .  A
O669       Zr674   2.389       .  S
O669       Zr676   2.352       .  S
O670       Zr675   2.395       .  S
O670       Zr676   2.388       .  S
O670        H705   0.966       .  S
O671       Zr674   2.408       .  S
O671       Zr691   2.399       .  S
O671        H708   0.964       .  S
O672       Zr675   2.373       .  S
O672       Zr691   2.377       .  S
Zr673       O698   2.438       .  S
Zr673       O692   2.425       .  S
Zr673       O700   2.418       .  S
Zr673       O688   2.466       .  S
Zr673       O679   2.408       .  S
Zr673       O680   2.408       .  S
Zr673       O681   2.361       .  S
Zr673       O682   2.391       .  S
Zr674       O693   2.441       .  S
Zr674       O686   2.435       .  S
Zr674       O687   2.426       .  S
Zr674       O680   2.391       .  S
Zr674       O681   2.377       .  S
Zr675       O677   2.436       .  S
Zr675       O699   2.437       .  S
Zr675       O701   2.413       .  S
Zr675       O679   2.401       .  S
Zr675       O682   2.388       .  S
Zr676       O702   2.435       .  S
Zr676       O703   2.434       .  S
Zr676       O678   2.436   1_545  S
Zr676       O679   2.401       .  S
Zr676       O680   2.422       .  S
O677        H714   0.990       .  S
O678        H709   0.990       .  S
O678        H723   0.990       .  S
O680        H706   0.966       .  S
O681       Zr691   2.357       .  S
O682       Zr691   2.379       .  S
O682        H707   0.966       .  S
C683       C2749   1.482       .  S
C684       C2737   1.477       .  S
C685       C2761   1.449       .  S
O686        H722   0.989       .  S
O687        C689   1.284       .  A
O688        C689   1.290       .  A
C689       C2833   1.482       .  S
O690       Zr691   2.439       .  S
O690        H719   0.990       .  S
Zr691       O694   2.437       .  S
Zr691       O695   2.439       .  S
Zr691       O696   2.423       .  S
O692        C697   1.284       .  A
O693        H710   0.990       .  S
O693        H725   0.988       .  S
O694        H711   0.990       .  S
O695        H715   0.990       .  S
O695        H724   0.990       .  S
O696        C697   1.283       .  A
C697       C3037   1.483       .  S
O698        H717   0.990       .  S
O698        H721   0.990       .  S
O699        H713   0.990       .  S
O699        H720   0.990       .  S
O700        C704   1.285       .  A
O701        C704   1.281       .  A
O702        H712   0.990   1_545  S
O703        H716   0.990       .  S
C704       C2725   1.466       .  S
Zr727       O728   2.443       .  S
Zr727       O729   2.426       .  S
Zr727       O730   2.399       .  S
Zr727       O733   2.441       .  S
Zr727       O735   2.379       .  S
Zr727       O736   2.386       .  S
Zr727       O737   2.433       .  S
Zr727       O738   2.376       .  S
O728        H784   0.990       .  S
O728        H792   0.991       .  S
O729        C749   1.282   1_545  A
O730        C751   1.274       .  A
O731       Zr741   2.446       .  S
O731        C750   1.285       .  A
O732       Zr740   2.424       .  S
O732        C751   1.274       .  A
O733        C750   1.286       .  A
O734       Zr742   2.468   1_565  S
O734        C749   1.288       .  A
O735       Zr740   2.379       .  S
O735       Zr742   2.358       .  S
O736       Zr741   2.402       .  S
O736       Zr742   2.393       .  S
O736        H771   0.966       .  S
O737       Zr740   2.415       .  S
O737       Zr757   2.404       .  S
O737        H774   0.965       .  S
O738       Zr741   2.375       .  S
O738       Zr757   2.364       .  S
Zr739       O764   2.436       .  S
Zr739       O758   2.451       .  S
Zr739       O766   2.419       .  S
Zr739       O754   2.488       .  S
Zr739       O745   2.423       .  S
Zr739       O746   2.421       .  S
Zr739       O747   2.353       .  S
Zr739       O748   2.390       .  S
Zr740       O759   2.440       .  S
Zr740       O752   2.435       .  S
Zr740       O753   2.424       .  S
Zr740       O746   2.387       .  S
Zr740       O747   2.374       .  S
Zr741       O743   2.435       .  S
Zr741       O765   2.437       .  S
Zr741       O767   2.426       .  S
Zr741       O745   2.391       .  S
Zr741       O748   2.394       .  S
Zr742       O768   2.435       .  S
Zr742       O769   2.434       .  S
Zr742       O744   2.436   1_545  S
Zr742       O745   2.408       .  S
Zr742       O746   2.434       .  S
O743        H780   0.990       .  S
O744        H775   0.990       .  S
O744        H789   0.990       .  S
O746        H772   0.966       .  S
O747       Zr757   2.346       .  S
O748       Zr757   2.383       .  S
O748        H773   0.966       .  S
C749       C2812   1.493       .  S
C750       C2821   1.466       .  S
C751       C2764   1.437       .  S
O752        H788   0.990       .  S
O753        C755   1.284       .  A
O754        C755   1.294       .  A
C755       C2716   1.489       .  S
O756       Zr757   2.438       .  S
O756        H785   0.990       .  S
Zr757       O760   2.437       .  S
Zr757       O761   2.438       .  S
Zr757       O762   2.416       .  S
O758        C763   1.288       .  A
O759        H776   0.989       .  S
O759        H791   0.989       .  S
O760        H777   0.990       .  S
O761        H781   0.990       .  S
O761        H790   0.990       .  S
O762        C763   1.281       .  A
C763       C2884   1.491       .  S
O764        H783   0.990       .  S
O764        H787   0.990       .  S
O765        H779   0.990       .  S
O765        H786   0.990       .  S
O766        C770   1.284       .  A
O767        C770   1.284       .  A
O768        H778   0.990       .  S
O769        H782   0.990       .  S
C770       C2701   1.485       .  S
Zr793       O794   2.440       .  S
Zr793       O795   2.434       .  S
Zr793       O796   2.435       .  S
Zr793       O799   2.434       .  S
Zr793       O801   2.368   1_556  S
Zr793       O802   2.385       .  S
Zr793       O803   2.417       .  S
Zr793       O804   2.383       .  S
O794        H850   0.990       .  S
O794        H858   0.990       .  S
O795        C815   1.284       .  A
O796        C817   1.284       .  A
O797       Zr807   2.448       .  S
O797        C816   1.286       .  A
O798       Zr806   2.393       .  S
O798        C817   1.272   1_554  A
O799        C816   1.285       .  A
O800       Zr808   2.454   1_556  S
O800        C815   1.286       .  A
O801       Zr806   2.379       .  S
O801       Zr808   2.355       .  S
O802       Zr807   2.395       .  S
O802       Zr808   2.390   1_556  S
O802        H837   0.966       .  S
O803       Zr806   2.396   1_556  S
O803       Zr823   2.421   1_556  S
O803        H840   0.966       .  S
O804       Zr807   2.368       .  S
O804       Zr823   2.370   1_556  S
Zr805       O830   2.438       .  S
Zr805       O824   2.427       .  S
Zr805       O832   2.443       .  S
Zr805       O820   2.494       .  S
Zr805       O811   2.415       .  S
Zr805       O812   2.410       .  S
Zr805       O813   2.364       .  S
Zr805       O814   2.394       .  S
Zr806       O825   2.440       .  S
Zr806       O818   2.432       .  S
Zr806       O819   2.396       .  S
Zr806       O812   2.390       .  S
Zr806       O813   2.376       .  S
Zr807       O809   2.436       .  S
Zr807       O831   2.438       .  S
Zr807       O833   2.412   1_556  S
Zr807       O811   2.394   1_556  S
Zr807       O814   2.391   1_556  S
Zr808       O834   2.435       .  S
Zr808       O835   2.434       .  S
Zr808       O810   2.436       .  S
Zr808       O811   2.396       .  S
Zr808       O812   2.423       .  S
O809        H846   0.990       .  S
O810        H841   0.990   1_565  S
O810        H855   0.990       .  S
O812        H838   0.966       .  S
O813       Zr823   2.361       .  S
O814       Zr823   2.383       .  S
O814        H839   0.966       .  S
C815       C2677   1.489   1_565  S
C816       C2665   1.463       .  S
C817       C2689   1.470       .  S
O818        H854   0.990       .  S
O819        C821   1.278       .  A
O820        C821   1.295       .  A
C821       C2788   1.494       .  S
O822       Zr823   2.439   1_556  S
O822        H851   0.990       .  S
Zr823       O826   2.436       .  S
Zr823       O827   2.439   1_554  S
Zr823       O828   2.437       .  S
O824        C829   1.284       .  A
O825        H842   0.990       .  S
O825        H857   0.989       .  S
O826        H843   0.990       .  S
O827        H847   0.990       .  S
O827        H856   0.990       .  S
O828        C829   1.285       .  A
C829       C3088   1.477       .  S
O830        H849   0.990       .  S
O830        H853   0.990       .  S
O831        H845   0.990       .  S
O831        H852   0.990       .  S
O832        C836   1.288       .  A
O833        C836   1.282       .  A
O834        H844   0.990       .  S
O835        H848   0.990       .  S
C836       C2653   1.477       .  S
Zr859       O860   2.440   1_556  S
Zr859       O861   2.427       .  S
Zr859       O862   2.433       .  S
Zr859       O865   2.443   1_556  S
Zr859       O867   2.376       .  S
Zr859       O868   2.387       .  S
Zr859       O869   2.419       .  S
Zr859       O870   2.383       .  S
O860        H916   0.990       .  S
O860        H924   0.990       .  S
O861        C881   1.282       .  A
O862        C883   1.283       .  A
O863       Zr873   2.450   1_554  S
O863        C882   1.287       .  A
O864       Zr872   2.399       .  S
O864        C883   1.272       .  A
O865        C882   1.286       .  A
O866       Zr874   2.464       .  S
O866        C881   1.288       .  A
O867       Zr872   2.385       .  S
O867       Zr874   2.352       .  S
O868       Zr873   2.399       .  S
O868       Zr874   2.388       .  S
O868        H903   0.966       .  S
O869       Zr872   2.406       .  S
O869       Zr889   2.412       .  S
O869        H906   0.965       .  S
O870       Zr873   2.374       .  S
O870       Zr889   2.369       .  S
Zr871       O896   2.436       .  S
Zr871       O890   2.431       .  S
Zr871       O898   2.424       .  S
Zr871       O886   2.483       .  S
Zr871       O877   2.419       .  S
Zr871       O878   2.414       .  S
Zr871       O879   2.368       .  S
Zr871       O880   2.390       .  S
Zr872       O891   2.441       .  S
Zr872       O884   2.434       .  S
Zr872       O885   2.418       .  S
Zr872       O878   2.390       .  S
Zr872       O879   2.378       .  S
Zr873       O875   2.435       .  S
Zr873       O897   2.437       .  S
Zr873       O899   2.434       .  S
Zr873       O877   2.392       .  S
Zr873       O880   2.388       .  S
Zr874       O900   2.436       .  S
Zr874       O901   2.434       .  S
Zr874       O876   2.436       .  S
Zr874       O877   2.404       .  S
Zr874       O878   2.422       .  S
O875        H912   0.990       .  S
O876        H907   0.990   1_565  S
O876        H921   0.990       .  S
O878        H904   0.966       .  S
O879       Zr889   2.362       .  S
O880       Zr889   2.385       .  S
O880        H905   0.965       .  S
C881       C2872   1.486   1_565  S
C882       C2776   1.468       .  S
C883       C2692   1.467       .  S
O884        H920   0.990       .  S
O885        C887   1.278       .  A
O886        C887   1.289       .  A
C887       C2641   1.502       .  S
O888       Zr889   2.439       .  S
O888        H917   0.990       .  S
Zr889       O892   2.436       .  S
Zr889       O893   2.438       .  S
Zr889       O894   2.427       .  S
O890        C895   1.285       .  A
O891        H908   0.989       .  S
O891        H923   0.990       .  S
O892        H909   0.990       .  S
O893        H913   0.990       .  S
O893        H922   0.990       .  S
O894        C895   1.284       .  A
C895       C2908   1.478       .  S
O896        H915   0.990       .  S
O896        H919   0.990       .  S
O897        H911   0.990       .  S
O897        H918   0.990       .  S
O898        C902   1.285       .  A
O899        C902   1.286       .  A
O900        H910   0.990       .  S
O901        H914   0.990       .  S
C902       C2629   1.489       .  S
Zr925       O926   2.440       .  S
Zr925       O927   2.423       .  S
Zr925       O928   2.434       .  S
Zr925       O931   2.431       .  S
Zr925       O933   2.364       .  S
Zr925       O934   2.388       .  S
Zr925       O935   2.414       .  S
Zr925       O936   2.376       .  S
O926        H982   0.990       .  S
O926        H990   0.991       .  S
O927        C947   1.282       .  A
O928        C949   1.284       .  A
O929       Zr939   2.469       .  S
O929        C948   1.290       .  A
O930       Zr938   2.395       .  S
O930        C949   1.273       .  A
O931        C948   1.286       .  A
O932       Zr940   2.471       .  S
O932        C947   1.289       .  A
O933       Zr938   2.381       .  S
O933       Zr940   2.353       .  S
O934       Zr939   2.405       .  S
O934       Zr940   2.392       .  S
O934        H969   0.966       .  S
O935       Zr938   2.403       .  S
O935       Zr955   2.426       .  S
O935        H972   0.966       .  S
O936       Zr939   2.365       .  S
O936       Zr955   2.358       .  S
Zr937       O962   2.437       .  S
Zr937       O956   2.436       .  S
Zr937       O964   2.434       .  S
Zr937       O952   2.492       .  S
Zr937       O943   2.415       .  S
Zr937       O944   2.415       .  S
Zr937       O945   2.354       .  S
Zr937       O946   2.395       .  S
Zr938       O957   2.442       .  S
Zr938       O950   2.434       .  S
Zr938       O951   2.408       .  S
Zr938       O944   2.389       .  S
Zr938       O945   2.370       .  S
Zr939       O941   2.435       .  S
Zr939       O963   2.437       .  S
Zr939       O965   2.444       .  S
Zr939       O943   2.394       .  S
Zr939       O946   2.396       .  S
Zr940       O966   2.435       .  S
Zr940       O967   2.434       .  S
Zr940       O942   2.436       .  S
Zr940       O943   2.401       .  S
Zr940       O944   2.434       .  S
O941        H978   0.990       .  S
O942        H973   0.990       .  S
O942        H987   0.990       .  S
O944        H970   0.966       .  S
O945       Zr955   2.348       .  S
O946       Zr955   2.390       .  S
O946        H971   0.965       .  S
C947       C2713   1.494       .  S
C948       C2740   1.472       .  S
C949       C2608   1.467       .  S
O950        H986   0.990       .  S
O951        C953   1.281       .  A
O952        C953   1.295       .  A
C953       C2680   1.485       .  S
O954       Zr955   2.439       .  S
O954        H983   0.990       .  S
Zr955       O958   2.436       .  S
Zr955       O959   2.438       .  S
Zr955       O960   2.437       .  S
O956        C961   1.286       .  A
O957        H974   0.989       .  S
O957        H989   0.989       .  S
O958        H975   0.990       .  S
O959        H979   0.990       .  S
O959        H988   0.990       .  S
O960        C961   1.286       .  A
C961       C2617   1.482       .  S
O962        H981   0.990       .  S
O962        H985   0.990       .  S
O963        H977   0.990       .  S
O963        H984   0.990       .  S
O964        C968   1.287       .  A
O965        C968   1.286       .  A
O966        H976   0.990       .  S
O967        H980   0.990       .  S
C968       C3016   1.476       .  S
Zr991       O992   2.440       .  S
Zr991       O993   2.416       .  S
Zr991       O994   2.439       .  S
Zr991       O997   2.428       .  S
Zr991       O999   2.363       .  S
Zr991      O1000   2.386       .  S
Zr991      O1001   2.407       .  S
Zr991      O1002   2.382       .  S
O992       H1048   0.990       .  S
O992       H1056   0.990       .  S
O993       C1013   1.282       .  A
O994       C1015   1.286       .  A
O995      Zr1005   2.446       .  S
O995       C1014   1.286       .  A
O996      Zr1004   2.393       .  S
O996       C1015   1.275       .  A
O997       C1014   1.284       .  A
O998      Zr1006   2.483       .  S
O998       C1013   1.291       .  A
O999      Zr1004   2.377       .  S
O999      Zr1006   2.349       .  S
O1000     Zr1005   2.396       .  S
O1000     Zr1006   2.386       .  S
O1000      H1035   0.966       .  S
O1001     Zr1004   2.398       .  S
O1001     Zr1021   2.415       .  S
O1001      H1038   0.966       .  S
O1002     Zr1005   2.374       .  S
O1002     Zr1021   2.366       .  S
Zr1003     O1028   2.437       .  S
Zr1003     O1022   2.441       .  S
Zr1003     O1030   2.426       .  S
Zr1003     O1018   2.478       .  S
Zr1003     O1009   2.420       .  S
Zr1003     O1010   2.415       .  S
Zr1003     O1011   2.359       .  S
Zr1003     O1012   2.390       .  S
Zr1004     O1023   2.441       .  S
Zr1004     O1016   2.434       .  S
Zr1004     O1017   2.407       .  S
Zr1004     O1010   2.391       .  S
Zr1004     O1011   2.371       .  S
Zr1005     O1007   2.435       .  S
Zr1005     O1029   2.437       .  S
Zr1005     O1031   2.428       .  S
Zr1005     O1009   2.393       .  S
Zr1005     O1012   2.389       .  S
Zr1006     O1032   2.435       .  S
Zr1006     O1033   2.434       .  S
Zr1006     O1008   2.436       .  S
Zr1006     O1009   2.409       .  S
Zr1006     O1010   2.435       .  S
O1007      H1044   0.990       .  S
O1008      H1039   0.990       .  S
O1008      H1053   0.990       .  S
O1010      H1036   0.966       .  S
O1011     Zr1021   2.356       .  S
O1012     Zr1021   2.386       .  S
O1012      H1037   0.966       .  S
C1013      C2644   1.508       .  S
C1014      C2668   1.462       .  S
C1015      C2605   1.472       .  S
O1016      H1052   0.990       .  S
O1017      C1019   1.280       .  A
O1018      C1019   1.292       .  A
C1019      C2752   1.479       .  S
O1020     Zr1021   2.439       .  S
O1020      H1049   0.990       .  S
Zr1021     O1024   2.437       .  S
Zr1021     O1025   2.438       .  S
Zr1021     O1026   2.428       .  S
O1022      C1027   1.287       .  A
O1023      H1040   0.990       .  S
O1023      H1055   0.990       .  S
O1024      H1041   0.990       .  S
O1025      H1045   0.990       .  S
O1025      H1054   0.990       .  S
O1026      C1027   1.284       .  A
C1027      C2593   1.483       .  S
O1028      H1047   0.990       .  S
O1028      H1051   0.990       .  S
O1029      H1043   0.990       .  S
O1029      H1050   0.990       .  S
O1030      C1034   1.286       .  A
O1031      C1034   1.284       .  A
O1032      H1042   0.990       .  S
O1033      H1046   0.990       .  S
C1034      C3172   1.489       .  S
Zr1057     O1058   2.435       .  S
Zr1057     O1059   2.431       .  S
Zr1057     O1060   2.436       .  S
Zr1057     O1063   2.501       .  S
Zr1057     O1065   2.393       .  S
Zr1057     O1066   2.373       .  S
Zr1057     O1067   2.432       .  S
Zr1057     O1068   2.413       .  S
O1058      H1114   0.990       .  S
O1058      H1122   0.990       .  S
O1059      C1079   1.284       .  A
O1060      C1081   1.287       .  A
O1061     Zr1071   2.404       .  S
O1061      C1080   1.280       .  A
O1062     Zr1070   2.440       .  S
O1062      C1081   1.288       .  A
O1063      C1080   1.297       .  A
O1064     Zr1072   2.409       .  S
O1064      C1079   1.280       .  A
O1065     Zr1070   2.404       .  S
O1065     Zr1072   2.375       .  S
O1066     Zr1071   2.383       .  S
O1066     Zr1072   2.349       .  S
O1066      H1101   0.964       .  S
O1067     Zr1070   2.414       .  S
O1067     Zr1087   2.401       .  S
O1067      H1104   0.965       .  S
O1068     Zr1071   2.385       .  S
O1068     Zr1087   2.428       .  S
Zr1069     O1094   2.429       .  S
Zr1069     O1088   2.433       .  S
Zr1069     O1096   2.399       .  S
Zr1069     O1084   2.433       .  S
Zr1069     O1075   2.395       .  S
Zr1069     O1076   2.396       .  S
Zr1069     O1077   2.375       .  S
Zr1069     O1078   2.372       .  S
Zr1070     O1089   2.434       .  S
Zr1070     O1082   2.434       .  S
Zr1070     O1083   2.478       .  S
Zr1070     O1076   2.400       .  S
Zr1070     O1077   2.395       .  S
Zr1071     O1073   2.433       .  S
Zr1071     O1095   2.437       .  S
Zr1071     O1097   2.407       .  S
Zr1071     O1075   2.378       .  S
Zr1071     O1078   2.362       .  S
Zr1072     O1098   2.436       .  S
Zr1072     O1099   2.437       .  S
Zr1072     O1074   2.438       .  S
Zr1072     O1075   2.395       .  S
Zr1072     O1076   2.358       .  S
O1073      H1110   0.990       .  S
O1074      H1105   0.990       .  S
O1074      H1119   0.990       .  S
O1076      H1102   0.963       .  S
O1077     Zr1087   2.380       .  S
O1078     Zr1087   2.350       .  S
O1078      H1103   0.965       .  S
C1079      C2704   1.474       .  S
C1080      C2581   1.495       .  S
C1081      C2533   1.491       .  S
O1082      H1118   0.990       .  S
O1083      C1085   1.290       .  A
O1084      C1085   1.282       .  A
C1085      C2545   1.503       .  S
O1086     Zr1087   2.439       .  S
O1086      H1115   0.990       .  S
Zr1087     O1090   2.436       .  S
Zr1087     O1091   2.438       .  S
Zr1087     O1092   2.479       .  S
O1088      C1093   1.288       .  A
O1089      H1106   0.990       .  S
O1089      H1121   0.990       .  S
O1090      H1107   0.990       .  S
O1091      H1111   0.990       .  S
O1091      H1120   0.990       .  S
O1092      C1093   1.292       .  A
C1093      C2557   1.494       .  S
O1094      H1113   0.987       .  S
O1094      H1117   0.987       .  S
O1095      H1109   0.990       .  S
O1095      H1116   0.990       .  S
O1096      C1100   1.281       .  A
O1097      C1100   1.282       .  A
O1098      H1108   0.990       .  S
O1099      H1112   0.990       .  S
C1100      C2572   1.446       .  S
Zr1123     O1124   2.435       .  S
Zr1123     O1125   2.437       .  S
Zr1123     O1126   2.436       .  S
Zr1123     O1129   2.498       .  S
Zr1123     O1131   2.396       .  S
Zr1123     O1132   2.372       .  S
Zr1123     O1133   2.432       .  S
Zr1123     O1134   2.419       .  S
O1124      H1180   0.990       .  S
O1124      H1188   0.990       .  S
O1125      C1145   1.285       .  A
O1126      C1147   1.288       .  A
O1127     Zr1137   2.405       .  S
O1127      C1146   1.276       .  A
O1128     Zr1136   2.445       .  S
O1128      C1147   1.288       .  A
O1129      C1146   1.295       .  A
O1130     Zr1138   2.410       .  S
O1130      C1145   1.281       .  A
O1131     Zr1136   2.403       .  S
O1131     Zr1138   2.375       .  S
O1132     Zr1137   2.389       .  S
O1132     Zr1138   2.355       .  S
O1132      H1167   0.964       .  S
O1133     Zr1136   2.416       .  S
O1133     Zr1153   2.404       .  S
O1133      H1170   0.965       .  S
O1134     Zr1137   2.385       .  S
O1134     Zr1153   2.433       .  S
Zr1135     O1160   2.440       .  S
Zr1135     O1154   2.427       .  S
Zr1135     O1162   2.398       .  S
Zr1135     O1150   2.422       .  S
Zr1135     O1141   2.427       .  S
Zr1135     O1142   2.411       .  S
Zr1135     O1143   2.382       .  S
Zr1135     O1144   2.406       .  S
Zr1136     O1155   2.434       .  S
Zr1136     O1148   2.435       .  S
Zr1136     O1149   2.474       .  S
Zr1136     O1142   2.412       .  S
Zr1136     O1143   2.402       .  S
Zr1137     O1139   2.435       .  S
Zr1137     O1161   2.444       .  S
Zr1137     O1163   2.408       .  S
Zr1137     O1141   2.387       .  S
Zr1137     O1144   2.373       .  S
Zr1138     O1164   2.437       .  S
Zr1138     O1165   2.437       .  S
Zr1138     O1140   2.438       .  S
Zr1138     O1141   2.387       .  S
Zr1138     O1142   2.365       .  S
O1139      H1176   0.990       .  S
O1140      H1171   0.990       .  S
O1140      H1185   0.990       .  S
O1142      H1168   0.964       .  S
O1143     Zr1153   2.382       .  S
O1144     Zr1153   2.353       .  S
O1144      H1169   0.965       .  S
C1145      C2632   1.477       .  S
C1146      C2521   1.488       .  S
C1147      C2485   1.487       .  S
O1148      H1184   0.990       .  S
O1149      C1151   1.286       .  A
O1150      C1151   1.274       .  A
C1151      C2497   1.498       .  S
O1152     Zr1153   2.440       .  S
O1152      H1181   0.990       .  S
Zr1153     O1156   2.436       .  S
Zr1153     O1157   2.438       .  S
Zr1153     O1158   2.481       .  S
O1154      C1159   1.286       .  A
O1155      H1172   0.990       .  S
O1155      H1187   0.990       .  S
O1156      H1173   0.990       .  S
O1157      H1177   0.990       .  S
O1157      H1186   0.990       .  S
O1158      C1159   1.293       .  A
C1159      C2509   1.504       .  S
O1160      H1179   0.989       .  S
O1160      H1183   0.989       .  S
O1161      H1175   0.990       .  S
O1161      H1182   0.991       .  S
O1162      C1166   1.264       .  A
O1163      C1166   1.273       .  A
O1164      H1174   0.990       .  S
O1165      H1178   0.990       .  S
C1166      C2569   1.454       .  S
Zr1189     O1190   2.436       .  S
Zr1189     O1191   2.428       .  S
Zr1189     O1192   2.437       .  S
Zr1189     O1195   2.469       .  S
Zr1189     O1197   2.391       .  S
Zr1189     O1198   2.395       .  S
Zr1189     O1199   2.421       .  S
Zr1189     O1200   2.415       .  S
O1190      H1246   0.990       .  S
O1190      H1254   0.990       .  S
O1191      C1211   1.282       .  A
O1192      C1213   1.288       .  A
O1193     Zr1203   2.420       .  S
O1193      C1212   1.278       .  A
O1194     Zr1202   2.440       .  S
O1194      C1213   1.287       .  A
O1195      C1212   1.286       .  A
O1196     Zr1204   2.417       .  S
O1196      C1211   1.280       .  A
O1197     Zr1202   2.408       .  S
O1197     Zr1204   2.377       .  S
O1198     Zr1203   2.390       .  S
O1198     Zr1204   2.360       .  S
O1198      H1233   0.966       .  S
O1199     Zr1202   2.411       .  S
O1199     Zr1219   2.394       .  S
O1199      H1236   0.965       .  S
O1200     Zr1203   2.402       .  S
O1200     Zr1219   2.423       .  S
Zr1201     O1226   2.450       .  S
Zr1201     O1220   2.450       .  S
Zr1201     O1228   2.428       .  S
Zr1201     O1216   2.434       .  S
Zr1201     O1207   2.451       .  S
Zr1201     O1208   2.416       .  S
Zr1201     O1209   2.381       .  S
Zr1201     O1210   2.449       .  S
Zr1202     O1221   2.434       .  S
Zr1202     O1214   2.434       .  S
Zr1202     O1215   2.472       .  S
Zr1202     O1208   2.402       .  S
Zr1202     O1209   2.399       .  S
Zr1203     O1205   2.435       .  S
Zr1203     O1227   2.440       .  S
Zr1203     O1229   2.376       .  S
Zr1203     O1207   2.385       .  S
Zr1203     O1210   2.415       .  S
Zr1204     O1230   2.436       .  S
Zr1204     O1231   2.439       .  S
Zr1204     O1206   2.439       .  S
Zr1204     O1207   2.389       .  S
Zr1204     O1208   2.379       .  S
O1205      H1242   0.990       .  S
O1206      H1237   0.990       .  S
O1206      H1251   0.990       .  S
O1208      H1234   0.963       .  S
O1209     Zr1219   2.392       .  S
O1210     Zr1219   2.356       .  S
O1210      H1235   0.972       .  S
C1211      C2473   1.463       .  S
C1212      C2512   1.504       .  S
C1213      C2596   1.493       .  S
O1214      H1250   0.990       .  S
O1215      C1217   1.288       .  A
O1216      C1217   1.281       .  A
C1217      C2440   1.496       .  S
O1218     Zr1219   2.439       .  S
O1218      H1247   0.990       .  S
Zr1219     O1222   2.437       .  S
Zr1219     O1223   2.440       .  S
Zr1219     O1224   2.461       .  S
O1220      C1225   1.290       .  A
O1221      H1238   0.990       .  S
O1221      H1253   0.990       .  S
O1222      H1239   0.990       .  S
O1223      H1243   0.990       .  S
O1223      H1252   0.990       .  S
O1224      C1225   1.288       .  A
C1225      C2452   1.495   1_565  S
O1226      H1245   0.990       .  S
O1226      H1249   0.988       .  S
O1227      H1241   0.990       .  S
O1227      H1248   0.990       .  S
O1228      C1232   1.261       .  A
O1229      C1232   1.260       .  A
O1230      H1240   0.990       .  S
O1231      H1244   0.990       .  S
C1232      C2461   1.441       .  S
Zr1255     O1256   2.437       .  S
Zr1255     O1257   2.437       .  S
Zr1255     O1258   2.441       .  S
Zr1255     O1261   2.482       .  S
Zr1255     O1263   2.388       .  S
Zr1255     O1264   2.379       .  S
Zr1255     O1265   2.425       .  S
Zr1255     O1266   2.421       .  S
O1256      H1312   0.990       .  S
O1256      H1320   0.990       .  S
O1257      C1277   1.286       .  A
O1258      C1279   1.289       .  A
O1259     Zr1269   2.427       .  S
O1259      C1278   1.284       .  A
O1260     Zr1268   2.443       .  S
O1260      C1279   1.288       .  A
O1261      C1278   1.294       .  A
O1262     Zr1270   2.410       .  S
O1262      C1277   1.280       .  A
O1263     Zr1268   2.405       .  S
O1263     Zr1270   2.377       .  S
O1264     Zr1269   2.393       .  S
O1264     Zr1270   2.354       .  S
O1264      H1299   0.964       .  S
O1265     Zr1268   2.410       .  S
O1265     Zr1285   2.392       .  S
O1265      H1302   0.965       .  S
O1266     Zr1269   2.394       .  S
O1266     Zr1285   2.437       .  S
Zr1267     O1292   2.446       .  S
Zr1267     O1286   2.442       .  S
Zr1267     O1294   2.420       .  S
Zr1267     O1282   2.442       .  S
Zr1267     O1273   2.446       .  S
Zr1267     O1274   2.405       .  S
Zr1267     O1275   2.384       .  S
Zr1267     O1276   2.446       .  S
Zr1268     O1287   2.434       .  S
Zr1268     O1280   2.434       .  S
Zr1268     O1281   2.468       .  S
Zr1268     O1274   2.402       .  S
Zr1268     O1275   2.399       .  S
Zr1269     O1271   2.434       .  S
Zr1269     O1293   2.436       .  S
Zr1269     O1295   2.380       .  S
Zr1269     O1273   2.389       .  S
Zr1269     O1276   2.396       .  S
Zr1270     O1296   2.437       .  S
Zr1270     O1297   2.439       .  S
Zr1270     O1272   2.439       .  S
Zr1270     O1273   2.389       .  S
Zr1270     O1274   2.369       .  S
O1271      H1308   0.990       .  S
O1272      H1303   0.990       .  S
O1272      H1317   0.990       .  S
O1274      H1300   0.962       .  S
O1275     Zr1285   2.393       .  S
O1276     Zr1285   2.348       .  S
O1276      H1301   0.971       .  S
C1277      C2413   1.485       .  S
C1278      C2425   1.492       .  S
C1279      C2797   1.494       .  S
O1280      H1316   0.990       .  S
O1281      C1283   1.289       .  A
O1282      C1283   1.285       .  A
C1283      C2500   1.496       .  S
O1284     Zr1285   2.440       .  S
O1284      H1313   0.990       .  S
Zr1285     O1288   2.437       .  S
Zr1285     O1289   2.438       .  S
Zr1285     O1290   2.473       .  S
O1286      C1291   1.289       .  A
O1287      H1304   0.990       .  S
O1287      H1319   0.990       .  S
O1288      H1305   0.990       .  S
O1289      H1309   0.990   1_565  S
O1289      H1318   0.990       .  S
O1290      C1291   1.290       .  A
C1291      C2584   1.494   1_565  S
O1292      H1311   0.987       .  S
O1292      H1315   0.987       .  S
O1293      H1307   0.990       .  S
O1293      H1314   0.990       .  S
O1294      C1298   1.261       .  A
O1295      C1298   1.259       .  A
O1296      H1306   0.990       .  S
O1297      H1310   0.990       .  S
C1298      C2464   1.439       .  S
Zr1321     O1322   2.436       .  S
Zr1321     O1323   2.441       .  S
Zr1321     O1324   2.456       .  S
Zr1321     O1327   2.516       .  S
Zr1321     O1329   2.396       .  S
Zr1321     O1330   2.376       .  S
Zr1321     O1331   2.433       .  S
Zr1321     O1332   2.418       .  S
O1322      H1378   0.990       .  S
O1322      H1386   0.990       .  S
O1323      C1343   1.286       .  A
O1324      C1345   1.290       .  A
O1325     Zr1335   2.387       .  S
O1325      C1344   1.276       .  A
O1326     Zr1334   2.432       .  S
O1326      C1345   1.286       .  A
O1327      C1344   1.300       .  A
O1328     Zr1336   2.386       .  S
O1328      C1343   1.275       .  A
O1329     Zr1334   2.406       .  S
O1329     Zr1336   2.378       .  S
O1330     Zr1335   2.382       .  S
O1330     Zr1336   2.355       .  S
O1330      H1365   0.965       .  S
O1331     Zr1334   2.418       .  S
O1331     Zr1351   2.394       .  S
O1331      H1368   0.964       .  S
O1332     Zr1335   2.381       .  S
O1332     Zr1351   2.424       .  S
Zr1333     O1358   2.439       .  S
Zr1333     O1352   2.418       .  S
Zr1333     O1360   2.397       .  S
Zr1333     O1348   2.440       .  S
Zr1333     O1339   2.393       .  S
Zr1333     O1340   2.391       .  S
Zr1333     O1341   2.373       .  S
Zr1333     O1342   2.375       .  S
Zr1334     O1353   2.434       .  S
Zr1334     O1346   2.435       .  S
Zr1334     O1347   2.478       .  S
Zr1334     O1340   2.400       .  S
Zr1334     O1341   2.392       .  S
Zr1335     O1337   2.433       .  S
Zr1335     O1359   2.439       .  S
Zr1335     O1361   2.387       .  S
Zr1335     O1339   2.374       .  S
Zr1335     O1342   2.363       .  S
Zr1336     O1362   2.435       .  S
Zr1336     O1363   2.439       .  S
Zr1336     O1338   2.440       .  S
Zr1336     O1339   2.386       .  S
Zr1336     O1340   2.355       .  S
O1337      H1374   0.990       .  S
O1338      H1369   0.990       .  S
O1338      H1383   0.990       .  S
O1340      H1366   0.963       .  S
O1341     Zr1351   2.382       .  S
O1342     Zr1351   2.348       .  S
O1342      H1367   0.965       .  S
C1343      C2728   1.483       .  S
C1344      C2449   1.499       .  S
C1345      C2368   1.470       .  S
O1346      H1382   0.990       .  S
O1347      C1349   1.291       .  A
O1348      C1349   1.285       .  A
C1349      C2380   1.496       .  S
O1350     Zr1351   2.439       .  S
O1350      H1379   0.990       .  S
Zr1351     O1354   2.436       .  S
Zr1351     O1355   2.438       .  S
Zr1351     O1356   2.471       .  S
O1352      C1357   1.285       .  A
O1353      H1370   0.990       .  S
O1353      H1385   0.990       .  S
O1354      H1371   0.990       .  S
O1355      H1375   0.990       .  S
O1355      H1384   0.990       .  S
O1356      C1357   1.290       .  A
C1357      C2389   1.489       .  S
O1358      H1377   0.987       .  S
O1358      H1381   0.989       .  S
O1359      H1373   0.990       .  S
O1359      H1380   0.990       .  S
O1360      C1364   1.277       .  A
O1361      C1364   1.278       .  A
O1362      H1372   0.990       .  S
O1363      H1376   0.990       .  S
C1364      C2401   1.428       .  S
Zr1387     O1388   2.435       .  S
Zr1387     O1389   2.431       .  S
Zr1387     O1390   2.429       .  S
Zr1387     O1393   2.489       .  S
Zr1387     O1395   2.391       .  S
Zr1387     O1396   2.380       .  S
Zr1387     O1397   2.432       .  S
Zr1387     O1398   2.417       .  S
O1388      H1444   0.990       .  S
O1388      H1452   0.990       .  S
O1389      C1409   1.284       .  A
O1390      C1411   1.286       .  A
O1391     Zr1401   2.422       .  S
O1391      C1410   1.280       .  A
O1392     Zr1400   2.450       .  S
O1392      C1411   1.290       .  A
O1393      C1410   1.291       .  A
O1394     Zr1402   2.413       .  S
O1394      C1409   1.279       .  A
O1395     Zr1400   2.400       .  S
O1395     Zr1402   2.379       .  S
O1396     Zr1401   2.378       .  S
O1396     Zr1402   2.350       .  S
O1396      H1431   0.964       .  S
O1397     Zr1400   2.410       .  S
O1397     Zr1417   2.397       .  S
O1397      H1434   0.964       .  S
O1398     Zr1401   2.387       .  S
O1398     Zr1417   2.435       .  S
Zr1399     O1424   2.442       .  S
Zr1399     O1418   2.415       .  S
Zr1399     O1426   2.414       .  S
Zr1399     O1414   2.437       .  S
Zr1399     O1405   2.400       .  S
Zr1399     O1406   2.395       .  S
Zr1399     O1407   2.379       .  S
Zr1399     O1408   2.375       .  S
Zr1400     O1419   2.434       .  S
Zr1400     O1412   2.435       .  S
Zr1400     O1413   2.468       .  S
Zr1400     O1406   2.408       .  S
Zr1400     O1407   2.399       .  S
Zr1401     O1403   2.436       .  S
Zr1401     O1425   2.438       .  S
Zr1401     O1427   2.397       .  S
Zr1401     O1405   2.395       .  S
Zr1401     O1408   2.387       .  S
Zr1402     O1428   2.436       .  S
Zr1402     O1429   2.436       .  S
Zr1402     O1404   2.438       .  S
Zr1402     O1405   2.399       .  S
Zr1402     O1406   2.355       .  S
O1403      H1440   0.990       .  S
O1404      H1435   0.990       .  S
O1404      H1449   0.990       .  S
O1406      H1432   0.963       .  S
O1407     Zr1417   2.378       .  S
O1408     Zr1417   2.333       .  S
O1408      H1433   0.963       .  S
C1409      C2656   1.461       .  S
C1410      C2353   1.510       .  S
C1411      C2341   1.492       .  S
O1412      H1448   0.990       .  S
O1413      C1415   1.289       .  A
O1414      C1415   1.283       .  A
C1415      C2437   1.499       .  S
O1416     Zr1417   2.438       .  S
O1416      H1445   0.990       .  S
Zr1417     O1420   2.436       .  S
Zr1417     O1421   2.438       .  S
Zr1417     O1422   2.494       .  S
O1418      C1423   1.284       .  A
O1419      H1436   0.990       .  S
O1419      H1451   0.990       .  S
O1420      H1437   0.990       .  S
O1421      H1441   0.990       .  S
O1421      H1450   0.990       .  S
O1422      C1423   1.295       .  A
C1423      C2428   1.493       .  S
O1424      H1443   0.989       .  S
O1424      H1447   0.989       .  S
O1425      H1439   0.990       .  S
O1425      H1446   0.990       .  S
O1426      C1430   1.281       .  A
O1427      C1430   1.270       .  A
O1428      H1438   0.990       .  S
O1429      H1442   0.990       .  S
C1430      C2404   1.428       .  S
Zr1453     O1454   2.436       .  S
Zr1453     O1455   2.445       .  S
Zr1453     O1456   2.444       .  S
Zr1453     O1459   2.498       .  S
Zr1453     O1461   2.393       .  S
Zr1453     O1462   2.374       .  S
Zr1453     O1463   2.432       .  S
Zr1453     O1464   2.419       .  S
O1454      H1510   0.990       .  S
O1454      H1518   0.990       .  S
O1455      C1475   1.287       .  A
O1456      C1477   1.288       .  A
O1457     Zr1467   2.412       .  S
O1457      C1476   1.282       .  A
O1458     Zr1466   2.438       .  S
O1458      C1477   1.288       .  A
O1459      C1476   1.297       .  A
O1460     Zr1468   2.404       .  S
O1460      C1475   1.279       .  A
O1461     Zr1466   2.402       .  S
O1461     Zr1468   2.380       .  S
O1462     Zr1467   2.381       .  S
O1462     Zr1468   2.348       .  S
O1462      H1497   0.965       .  S
O1463     Zr1466   2.411       .  S
O1463     Zr1483   2.407       .  S
O1463      H1500   0.965       .  S
O1464     Zr1467   2.386       .  S
O1464     Zr1483   2.433       .  S
Zr1465     O1490   2.437   1_556  S
Zr1465     O1484   2.430   1_556  S
Zr1465     O1492   2.407       .  S
Zr1465     O1480   2.447   1_556  S
Zr1465     O1471   2.405       .  S
Zr1465     O1472   2.399       .  S
Zr1465     O1473   2.377       .  S
Zr1465     O1474   2.378       .  S
Zr1466     O1485   2.434       .  S
Zr1466     O1478   2.434       .  S
Zr1466     O1479   2.457   1_556  S
Zr1466     O1472   2.413       .  S
Zr1466     O1473   2.404       .  S
Zr1467     O1469   2.434       .  S
Zr1467     O1491   2.437       .  S
Zr1467     O1493   2.403       .  S
Zr1467     O1471   2.393       .  S
Zr1467     O1474   2.378       .  S
Zr1468     O1494   2.436       .  S
Zr1468     O1495   2.435       .  S
Zr1468     O1470   2.437       .  S
Zr1468     O1471   2.390       .  S
Zr1468     O1472   2.355       .  S
O1469      H1506   0.990       .  S
O1470      H1501   0.990       .  S
O1470      H1515   0.990       .  S
O1472      H1498   0.964       .  S
O1473     Zr1483   2.381       .  S
O1474     Zr1483   2.340       .  S
O1474      H1499   0.963       .  S
C1475      C2332   1.484       .  S
C1476      C2560   1.498       .  S
C1477      C2620   1.494       .  S
O1478      H1514   0.990       .  S
O1479      C1481   1.285       .  A
O1480      C1481   1.283       .  A
C1481      C2377   1.497       .  S
O1482     Zr1483   2.438       .  S
O1482      H1511   0.990   1_545  S
Zr1483     O1486   2.436       .  S
Zr1483     O1487   2.437   1_545  S
Zr1483     O1488   2.494   1_545  S
O1484      C1489   1.286   1_544  A
O1485      H1502   0.990       .  S
O1485      H1517   0.990       .  S
O1486      H1503   0.990   1_545  S
O1487      H1507   0.990       .  S
O1487      H1516   0.990       .  S
O1488      C1489   1.295       .  A
C1489      C2356   1.507   1_556  S
O1490      H1509   0.991       .  S
O1490      H1513   0.990       .  S
O1491      H1505   0.990       .  S
O1491      H1512   0.990       .  S
O1492      C1496   1.277       .  A
O1493      C1496   1.273       .  A
O1494      H1504   0.990       .  S
O1495      H1508   0.990       .  S
C1496      C2317   1.432       .  S
Zr1519     O1520   2.435       .  S
Zr1519     O1521   2.428       .  S
Zr1519     O1522   2.432       .  S
Zr1519     O1525   2.490       .  S
Zr1519     O1527   2.397       .  S
Zr1519     O1528   2.371       .  S
Zr1519     O1529   2.426       .  S
Zr1519     O1530   2.414       .  S
O1520      H1576   0.990       .  S
O1520      H1584   0.990       .  S
O1521      C1541   1.284       .  A
O1522      C1543   1.287       .  A
O1523     Zr1533   2.411       .  S
O1523      C1542   1.280       .  A
O1524     Zr1532   2.436   1_554  S
O1524      C1543   1.287       .  A
O1525      C1542   1.294       .  A
O1526     Zr1534   2.411   1_554  S
O1526      C1541   1.280       .  A
O1527     Zr1532   2.405   1_554  S
O1527     Zr1534   2.371   1_554  S
O1528     Zr1533   2.388       .  S
O1528     Zr1534   2.355   1_554  S
O1528      H1563   0.964       .  S
O1529     Zr1532   2.420   1_554  S
O1529     Zr1549   2.393       .  S
O1529      H1566   0.965       .  S
O1530     Zr1533   2.384       .  S
O1530     Zr1549   2.426       .  S
Zr1531     O1556   2.449       .  S
Zr1531     O1550   2.443       .  S
Zr1531     O1558   2.400       .  S
Zr1531     O1546   2.434       .  S
Zr1531     O1537   2.434       .  S
Zr1531     O1538   2.413       .  S
Zr1531     O1539   2.377       .  S
Zr1531     O1540   2.413       .  S
Zr1532     O1551   2.433       .  S
Zr1532     O1544   2.435       .  S
Zr1532     O1545   2.480       .  S
Zr1532     O1538   2.403       .  S
Zr1532     O1539   2.399       .  S
Zr1533     O1535   2.435       .  S
Zr1533     O1557   2.438       .  S
Zr1533     O1559   2.394   1_554  S
Zr1533     O1537   2.381   1_554  S
Zr1533     O1540   2.381   1_554  S
Zr1534     O1560   2.437   1_556  S
Zr1534     O1561   2.438       .  S
Zr1534     O1536   2.438       .  S
Zr1534     O1537   2.378       .  S
Zr1534     O1538   2.369       .  S
O1535      H1572   0.990       .  S
O1536      H1567   0.990       .  S
O1536      H1581   0.990       .  S
O1538      H1564   0.963       .  S
O1539     Zr1549   2.390   1_556  S
O1540     Zr1549   2.354   1_556  S
O1540      H1565   0.966       .  S
C1541      C2305   1.474       .  S
C1542      C2392   1.488       .  S
C1543      C2860   1.474       .  S
O1544      H1580   0.990       .  S
O1545      C1547   1.288       .  A
O1546      C1547   1.280       .  A
C1547      C2548   1.501       .  S
O1548     Zr1549   2.440       .  S
O1548      H1577   0.990       .  S
Zr1549     O1552   2.437       .  S
Zr1549     O1553   2.438   1_545  S
Zr1549     O1554   2.458   1_554  S
O1550      C1555   1.289       .  A
O1551      H1568   0.990       .  S
O1551      H1583   0.990       .  S
O1552      H1569   0.990   1_554  S
O1553      H1573   0.990       .  S
O1553      H1582   0.990       .  S
O1554      C1555   1.288       .  A
C1555      C2524   1.491   1_545  S
O1556      H1575   0.988       .  S
O1556      H1579   0.989       .  S
O1557      H1571   0.990       .  S
O1557      H1578   0.990       .  S
O1558      C1562   1.263       .  A
O1559      C1562   1.269       .  A
O1560      H1570   0.990       .  S
O1561      H1574   0.990       .  S
C1562      C2320   1.437       .  S
Zr1585     O1586   2.440       .  S
Zr1585     O1587   2.437       .  S
Zr1585     O1588   2.434       .  S
Zr1585     O1591   2.441       .  S
Zr1585     O1593   2.369       .  S
Zr1585     O1594   2.387       .  S
Zr1585     O1595   2.418       .  S
Zr1585     O1596   2.385       .  S
O1586      H1642   0.990       .  S
O1586      H1650   0.990       .  S
O1587      C1607   1.283       .  A
O1588      C1609   1.284       .  A
O1589     Zr1599   2.447       .  S
O1589      C1608   1.286       .  A
O1590     Zr1598   2.395       .  S
O1590      C1609   1.273       .  A
O1591      C1608   1.286       .  A
O1592     Zr1600   2.459       .  S
O1592      C1607   1.287       .  A
O1593     Zr1598   2.379       .  S
O1593     Zr1600   2.350       .  S
O1594     Zr1599   2.401       .  S
O1594     Zr1600   2.391       .  S
O1594      H1629   0.966       .  S
O1595     Zr1598   2.400       .  S
O1595     Zr1615   2.418       .  S
O1595      H1632   0.966       .  S
O1596     Zr1599   2.374       .  S
O1596     Zr1615   2.371       .  S
Zr1597     O1622   2.437       .  S
Zr1597     O1616   2.435       .  S
Zr1597     O1624   2.421       .  S
Zr1597     O1612   2.478       .  S
Zr1597     O1603   2.414       .  S
Zr1597     O1604   2.411       .  S
Zr1597     O1605   2.359       .  S
Zr1597     O1606   2.389       .  S
Zr1598     O1617   2.441       .  S
Zr1598     O1610   2.434       .  S
Zr1598     O1611   2.404       .  S
Zr1598     O1604   2.392       .  S
Zr1598     O1605   2.371       .  S
Zr1599     O1601   2.436       .  S
Zr1599     O1623   2.437       .  S
Zr1599     O1625   2.430       .  S
Zr1599     O1603   2.393       .  S
Zr1599     O1606   2.392       .  S
Zr1600     O1626   2.435       .  S
Zr1600     O1627   2.434       .  S
Zr1600     O1602   2.436       .  S
Zr1600     O1603   2.402       .  S
Zr1600     O1604   2.425       .  S
O1601      H1638   0.990       .  S
O1602      H1633   0.990       .  S
O1602      H1647   0.990       .  S
O1604      H1630   0.966       .  S
O1605     Zr1615   2.351       .  S
O1606     Zr1615   2.384       .  S
O1606      H1631   0.966       .  S
C1607      C2269   1.486       .  S
C1608      C2257   1.466       .  S
C1609      C2284   1.469       .  S
O1610      H1646   0.990       .  S
O1611      C1613   1.280       .  A
O1612      C1613   1.292       .  A
C1613      C2296   1.478       .  S
O1614     Zr1615   2.438       .  S
O1614      H1643   0.990       .  S
Zr1615     O1618   2.437       .  S
Zr1615     O1619   2.439       .  S
Zr1615     O1620   2.433       .  S
O1616      C1621   1.284       .  A
O1617      H1634   0.990       .  S
O1617      H1649   0.989       .  S
O1618      H1635   0.990       .  S
O1619      H1639   0.990       .  S
O1619      H1648   0.990       .  S
O1620      C1621   1.283       .  A
C1621      C2365   1.469       .  S
O1622      H1641   0.990       .  S
O1622      H1645   0.990       .  S
O1623      H1637   0.990       .  S
O1623      H1644   0.990       .  S
O1624      C1628   1.284       .  A
O1625      C1628   1.285       .  A
O1626      H1636   0.990       .  S
O1627      H1640   0.990       .  S
C1628      C3073   1.488       .  S
Zr1651     O1652   2.437       .  S
Zr1651     O1653   2.423       .  S
Zr1651     O1654   2.426       .  S
Zr1651     O1657   2.423       .  S
Zr1651     O1659   2.366       .  S
Zr1651     O1660   2.384       .  S
Zr1651     O1661   2.402       .  S
Zr1651     O1662   2.395       .  S
O1652      H1708   0.990       .  S
O1652      H1716   0.990       .  S
O1653      C1673   1.284       .  A
O1654      C1675   1.283       .  A
O1655     Zr1665   2.467       .  S
O1655      C1674   1.288       .  A
O1656     Zr1664   2.399       .  S
O1656      C1675   1.274       .  A
O1657      C1674   1.280       .  A
O1658     Zr1666   2.478       .  S
O1658      C1673   1.291       .  A
O1659     Zr1664   2.376       .  S
O1659     Zr1666   2.351       .  S
O1660     Zr1665   2.400       .  S
O1660     Zr1666   2.378       .  S
O1660      H1695   0.966       .  S
O1661     Zr1664   2.392       .  S
O1661     Zr1681   2.412       .  S
O1661      H1698   0.966       .  S
O1662     Zr1665   2.384       .  S
O1662     Zr1681   2.377       .  S
Zr1663     O1688   2.437       .  S
Zr1663     O1682   2.431       .  S
Zr1663     O1690   2.424       .  S
Zr1663     O1678   2.490       .  S
Zr1663     O1669   2.416       .  S
Zr1663     O1670   2.414       .  S
Zr1663     O1671   2.358       .  S
Zr1663     O1672   2.394       .  S
Zr1664     O1683   2.437       .  S
Zr1664     O1676   2.433       .  S
Zr1664     O1677   2.403       .  S
Zr1664     O1670   2.388       .  S
Zr1664     O1671   2.376       .  S
Zr1665     O1667   2.435       .  S
Zr1665     O1689   2.437       .  S
Zr1665     O1691   2.449       .  S
Zr1665     O1669   2.395       .  S
Zr1665     O1672   2.392       .  S
Zr1666     O1692   2.436       .  S
Zr1666     O1693   2.434       .  S
Zr1666     O1668   2.435       .  S
Zr1666     O1669   2.399       .  S
Zr1666     O1670   2.430       .  S
O1667      H1704   0.990       .  S
O1668      H1699   0.990       .  S
O1668      H1713   0.990       .  S
O1670      H1696   0.966       .  S
O1671     Zr1681   2.364       .  S
O1672     Zr1681   2.382       .  S
O1672      H1697   0.965       .  S
C1673      C2236   1.494       .  S
C1674      C2224   1.495       .  S
C1675      C2281   1.470       .  S
O1676      H1712   0.990       .  S
O1677      C1679   1.276       .  A
O1678      C1679   1.292       .  A
C1679      C2248   1.500       .  S
O1680     Zr1681   2.439       .  S
O1680      H1709   0.990       .  S
Zr1681     O1684   2.437       .  S
Zr1681     O1685   2.438       .  S
Zr1681     O1686   2.435       .  S
O1682      C1687   1.285       .  A
O1683      H1700   0.990       .  S
O1683      H1715   0.990       .  S
O1684      H1701   0.990       .  S
O1685      H1705   0.990       .  S
O1685      H1714   0.990       .  S
O1686      C1687   1.285       .  A
C1687      C2536   1.476       .  S
O1688      H1707   0.990       .  S
O1688      H1711   0.990       .  S
O1689      H1703   0.990       .  S
O1689      H1710   0.990       .  S
O1690      C1694   1.286       .  A
O1691      C1694   1.288       .  A
O1692      H1702   0.990       .  S
O1693      H1706   0.990       .  S
C1694      C2893   1.471       .  S
Zr1717     O1718   2.449       .  S
Zr1717     O1719   2.410       .  S
Zr1717     O1720   2.400       .  S
Zr1717     O1723   2.415       .  S
Zr1717     O1725   2.373       .  S
Zr1717     O1726   2.377       .  S
Zr1717     O1727   2.413       .  S
Zr1717     O1728   2.391       .  S
O1718      H1774   0.990       .  S
O1718      H1782   0.990       .  S
O1719      C1739   1.282       .  A
O1720      C1741   1.277       .  A
O1721     Zr1731   2.451       .  S
O1721      C1740   1.284       .  A
O1722     Zr1730   2.420       .  S
O1722      C1741   1.276       .  A
O1723      C1740   1.278       .  A
O1724     Zr1732   2.469       .  S
O1724      C1739   1.289       .  A
O1725     Zr1730   2.381       .  S
O1725     Zr1732   2.350       .  S
O1726     Zr1731   2.391       .  S
O1726     Zr1732   2.382       .  S
O1726      H1761   0.966       .  S
O1727     Zr1730   2.399       .  S
O1727     Zr1747   2.406       .  S
O1727      H1764   0.966       .  S
O1728     Zr1731   2.380       .  S
O1728     Zr1747   2.381       .  S
Zr1729     O1754   2.438       .  S
Zr1729     O1748   2.432       .  S
Zr1729     O1756   2.436       .  S
Zr1729     O1744   2.479       .  S
Zr1729     O1735   2.412       .  S
Zr1729     O1736   2.414       .  S
Zr1729     O1737   2.365       .  S
Zr1729     O1738   2.391       .  S
Zr1730     O1749   2.437       .  S
Zr1730     O1742   2.434       .  S
Zr1730     O1743   2.422       .  S
Zr1730     O1736   2.393       .  S
Zr1730     O1737   2.382       .  S
Zr1731     O1733   2.435       .  S
Zr1731     O1755   2.437       .  S
Zr1731     O1757   2.420       .  S
Zr1731     O1735   2.400       .  S
Zr1731     O1738   2.386       .  S
Zr1732     O1758   2.435       .  S
Zr1732     O1759   2.434       .  S
Zr1732     O1734   2.436       .  S
Zr1732     O1735   2.402       .  S
Zr1732     O1736   2.424       .  S
O1733      H1770   0.990       .  S
O1734      H1765   0.990       .  S
O1734      H1779   0.990       .  S
O1736      H1762   0.966       .  S
O1737     Zr1747   2.364       .  S
O1738     Zr1747   2.381       .  S
O1738      H1763   0.965       .  S
C1739      C2197   1.489       .  S
C1740      C2185   1.480       .  S
C1741      C2212   1.451       .  S
O1742      H1778   0.990       .  S
O1743      C1745   1.284       .  A
O1744      C1745   1.292       .  A
C1745      C2233   1.492       .  S
O1746     Zr1747   2.440       .  S
O1746      H1775   0.990       .  S
Zr1747     O1750   2.437       .  S
Zr1747     O1751   2.438       .  S
Zr1747     O1752   2.432       .  S
O1748      C1753   1.285       .  A
O1749      H1766   0.990       .  S
O1749      H1781   0.990       .  S
O1750      H1767   0.990       .  S
O1751      H1771   0.990       .  S
O1751      H1780   0.990       .  S
O1752      C1753   1.285       .  A
C1753      C3196   1.480       .  S
O1754      H1773   0.990       .  S
O1754      H1777   0.990       .  S
O1755      H1769   0.990       .  S
O1755      H1776   0.990       .  S
O1756      C1760   1.288       .  A
O1757      C1760   1.283       .  A
O1758      H1768   0.990       .  S
O1759      H1772   0.990       .  S
C1760      C2416   1.486       .  S
Zr1783     O1784   2.443       .  S
Zr1783     O1785   2.425       .  S
Zr1783     O1786   2.431       .  S
Zr1783     O1789   2.419       .  S
Zr1783     O1791   2.418       .  S
Zr1783     O1792   2.383       .  S
Zr1783     O1793   2.459       .  S
Zr1783     O1794   2.404       .  S
O1784      H1840   0.990       .  S
O1784      H1848   0.990       .  S
O1785      C1805   1.285       .  A
O1786      C1807   1.259       .  A
O1787     Zr1797   2.474       .  S
O1787      C1806   1.286       .  A
O1788     Zr1796   2.385       .  S
O1788      C1807   1.265       .  A
O1789      C1806   1.275       .  A
O1790     Zr1798   2.456       .  S
O1790      C1805   1.287       .  A
O1791     Zr1796   2.395       .  S
O1791     Zr1798   2.356       .  S
O1792     Zr1797   2.393       .  S
O1792     Zr1798   2.387       .  S
O1792      H1827   0.966       .  S
O1793     Zr1796   2.402       .  S
O1793     Zr1813   2.397       .  S
O1793      H1830   0.963       .  S
O1794     Zr1797   2.378       .  S
O1794     Zr1813   2.390       .  S
Zr1795     O1820   2.438       .  S
Zr1795     O1814   2.419       .  S
Zr1795     O1822   2.428       .  S
Zr1795     O1810   2.490       .  S
Zr1795     O1801   2.414       .  S
Zr1795     O1802   2.405       .  S
Zr1795     O1803   2.371       .  S
Zr1795     O1804   2.397       .  S
Zr1796     O1815   2.440       .  S
Zr1796     O1808   2.435       .  S
Zr1796     O1809   2.411       .  S
Zr1796     O1802   2.406       .  S
Zr1796     O1803   2.383       .  S
Zr1797     O1799   2.436       .  S
Zr1797     O1821   2.437       .  S
Zr1797     O1823   2.422       .  S
Zr1797     O1801   2.411       .  S
Zr1797     O1804   2.394       .  S
Zr1798     O1824   2.435       .  S
Zr1798     O1825   2.434       .  S
Zr1798     O1800   2.436       .  S
Zr1798     O1801   2.397       .  S
Zr1798     O1802   2.419       .  S
O1799      H1836   0.990       .  S
O1800      H1831   0.990       .  S
O1800      H1845   0.990       .  S
O1802      H1828   0.966       .  S
O1803     Zr1813   2.375       .  S
O1804     Zr1813   2.371       .  S
O1804      H1829   0.966       .  S
C1805      C2293   1.484       .  S
C1806      C2221   1.490       .  S
C1807      C2209   1.452       .  S
O1808      H1844   0.990       .  S
O1809      C1811   1.280       .  A
O1810      C1811   1.293       .  A
C1811      C2176   1.503       .  S
O1812     Zr1813   2.440       .  S
O1812      H1841   0.990       .  S
Zr1813     O1816   2.437       .  S
Zr1813     O1817   2.439       .  S
Zr1813     O1818   2.429       .  S
O1814      C1819   1.282       .  A
O1815      H1832   0.989       .  S
O1815      H1847   0.989       .  S
O1816      H1833   0.990       .  S
O1817      H1837   0.990       .  S
O1817      H1846   0.990       .  S
O1818      C1819   1.284       .  A
C1819      C2944   1.476       .  S
O1820      H1839   0.990       .  S
O1820      H1843   0.990       .  S
O1821      H1835   0.990       .  S
O1821      H1842   0.990       .  S
O1822      C1826   1.287       .  A
O1823      C1826   1.283       .  A
O1824      H1834   0.990       .  S
O1825      H1838   0.990       .  S
C1826      C2308   1.485       .  S
Zr1849     O1850   2.439       .  S
Zr1849     O1851   2.423       .  S
Zr1849     O1852   2.429       .  S
Zr1849     O1855   2.436       .  S
Zr1849     O1857   2.366       .  S
Zr1849     O1858   2.386       .  S
Zr1849     O1859   2.414       .  S
Zr1849     O1860   2.385       .  S
O1850      H1906   0.990       .  S
O1850      H1914   0.990       .  S
O1851      C1871   1.283       .  A
O1852      C1873   1.282       .  A
O1853     Zr1863   2.450       .  S
O1853      C1872   1.286       .  A
O1854     Zr1862   2.400       .  S
O1854      C1873   1.275   1_554  A
O1855      C1872   1.284       .  A
O1856     Zr1864   2.463   1_556  S
O1856      C1871   1.288       .  A
O1857     Zr1862   2.375   1_556  S
O1857     Zr1864   2.350   1_556  S
O1858     Zr1863   2.399       .  S
O1858     Zr1864   2.389   1_556  S
O1858      H1893   0.966       .  S
O1859     Zr1862   2.400   1_556  S
O1859     Zr1879   2.415       .  S
O1859      H1896   0.966       .  S
O1860     Zr1863   2.374       .  S
O1860     Zr1879   2.369       .  S
Zr1861     O1886   2.437       .  S
Zr1861     O1880   2.433       .  S
Zr1861     O1888   2.423       .  S
Zr1861     O1876   2.479       .  S
Zr1861     O1867   2.417       .  S
Zr1861     O1868   2.412       .  S
Zr1861     O1869   2.361       .  S
Zr1861     O1870   2.391       .  S
Zr1862     O1881   2.437       .  S
Zr1862     O1874   2.434       .  S
Zr1862     O1875   2.409       .  S
Zr1862     O1868   2.392       .  S
Zr1862     O1869   2.373       .  S
Zr1863     O1865   2.436       .  S
Zr1863     O1887   2.437       .  S
Zr1863     O1889   2.431   1_556  S
Zr1863     O1867   2.395   1_556  S
Zr1863     O1870   2.389   1_556  S
Zr1864     O1890   2.435       .  S
Zr1864     O1891   2.434       .  S
Zr1864     O1866   2.436       .  S
Zr1864     O1867   2.402       .  S
Zr1864     O1868   2.429       .  S
O1865      H1902   0.990       .  S
O1866      H1897   0.990       .  S
O1866      H1911   0.990       .  S
O1868      H1894   0.966       .  S
O1869     Zr1879   2.354   1_554  S
O1870     Zr1879   2.384   1_554  S
O1870      H1895   0.965       .  S
C1871      C2152   1.488       .  S
C1872      C2137   1.467       .  S
C1873      C2161   1.469       .  S
O1874      H1910   0.990       .  S
O1875      C1877   1.282       .  A
O1876      C1877   1.292       .  A
C1877      C2200   1.485       .  S
O1878     Zr1879   2.439       .  S
O1878      H1907   0.990       .  S
Zr1879     O1882   2.437   1_556  S
Zr1879     O1883   2.438       .  S
Zr1879     O1884   2.434   1_556  S
O1880      C1885   1.285       .  A
O1881      H1898   0.990       .  S
O1881      H1913   0.990       .  S
O1882      H1899   0.990       .  S
O1883      H1903   0.990       .  S
O1883      H1912   0.990       .  S
O1884      C1885   1.286       .  A
C1885      C2344   1.482       .  S
O1886      H1905   0.990       .  S
O1886      H1909   0.990       .  S
O1887      H1901   0.990       .  S
O1887      H1908   0.990       .  S
O1888      C1892   1.285       .  A
O1889      C1892   1.285       .  A
O1890      H1900   0.990   1_554  S
O1891      H1904   0.990       .  S
C1892      C3109   1.489       .  S
Zr1915     O1916   2.439   1_556  S
Zr1915     O1917   2.421       .  S
Zr1915     O1918   2.424       .  S
Zr1915     O1921   2.427   1_556  S
Zr1915     O1923   2.369       .  S
Zr1915     O1924   2.385       .  S
Zr1915     O1925   2.415       .  S
Zr1915     O1926   2.380       .  S
O1916      H1972   0.990       .  S
O1916      H1980   0.991       .  S
O1917      C1937   1.282       .  A
O1918      C1939   1.281       .  A
O1919     Zr1929   2.459   1_554  S
O1919      C1938   1.288       .  A
O1920     Zr1928   2.401       .  S
O1920      C1939   1.274       .  A
O1921      C1938   1.285       .  A
O1922     Zr1930   2.474       .  S
O1922      C1937   1.290       .  A
O1923     Zr1928   2.384       .  S
O1923     Zr1930   2.353       .  S
O1924     Zr1929   2.407       .  S
O1924     Zr1930   2.388       .  S
O1924      H1959   0.966       .  S
O1925     Zr1928   2.400       .  S
O1925     Zr1945   2.415       .  S
O1925      H1962   0.966       .  S
O1926     Zr1929   2.371       .  S
O1926     Zr1945   2.364       .  S
Zr1927     O1952   2.436       .  S
Zr1927     O1946   2.439       .  S
Zr1927     O1954   2.420       .  S
Zr1927     O1942   2.473       .  S
Zr1927     O1933   2.418       .  S
Zr1927     O1934   2.416       .  S
Zr1927     O1935   2.364       .  S
Zr1927     O1936   2.388       .  S
Zr1928     O1947   2.437       .  S
Zr1928     O1940   2.434       .  S
Zr1928     O1941   2.412       .  S
Zr1928     O1934   2.395       .  S
Zr1928     O1935   2.376       .  S
Zr1929     O1931   2.436       .  S
Zr1929     O1953   2.437       .  S
Zr1929     O1955   2.444       .  S
Zr1929     O1933   2.392       .  S
Zr1929     O1936   2.397       .  S
Zr1930     O1956   2.435       .  S
Zr1930     O1957   2.434       .  S
Zr1930     O1932   2.436       .  S
Zr1930     O1933   2.405       .  S
Zr1930     O1934   2.431       .  S
O1931      H1968   0.990       .  S
O1932      H1963   0.990       .  S
O1932      H1977   0.990       .  S
O1934      H1960   0.966       .  S
O1935     Zr1945   2.359       .  S
O1936     Zr1945   2.387       .  S
O1936      H1961   0.966       .  S
C1937      C2173   1.493       .  S
C1938      C2188   1.471       .  S
C1939      C2164   1.463       .  S
O1940      H1976   0.990       .  S
O1941      C1943   1.279       .  A
O1942      C1943   1.289       .  A
C1943      C2125   1.498       .  S
O1944     Zr1945   2.439       .  S
O1944      H1973   0.990       .  S
Zr1945     O1948   2.436       .  S
Zr1945     O1949   2.440       .  S
Zr1945     O1950   2.428       .  S
O1946      C1951   1.286       .  A
O1947      H1964   0.990       .  S
O1947      H1979   0.990       .  S
O1948      H1965   0.990       .  S
O1949      H1969   0.990       .  S
O1949      H1978   0.990       .  S
O1950      C1951   1.285       .  A
C1951      C2488   1.492       .  S
O1952      H1971   0.990       .  S
O1952      H1975   0.990       .  S
O1953      H1967   0.990       .  S
O1953      H1974   0.990       .  S
O1954      C1958   1.286       .  A
O1955      C1958   1.287       .  A
O1956      H1966   0.990       .  S
O1957      H1970   0.990       .  S
C1958      C2932   1.490       .  S
Zr1981     O1982   2.441       .  S
Zr1981     O1983   2.432       .  S
Zr1981     O1984   2.405       .  S
Zr1981     O1987   2.432       .  S
Zr1981     O1989   2.379       .  S
Zr1981     O1990   2.382       .  S
Zr1981     O1991   2.432       .  S
Zr1981     O1992   2.387       .  S
O1982      H2038   0.990       .  S
O1982      H2046   0.991       .  S
O1983      C2003   1.283       .  A
O1984      C2005   1.274       .  A
O1985     Zr1995   2.453       .  S
O1985      C2004   1.287       .  A
O1986     Zr1994   2.413       .  S
O1986      C2005   1.270       .  A
O1987      C2004   1.282       .  A
O1988     Zr1996   2.452       .  S
O1988      C2003   1.285       .  A
O1989     Zr1994   2.389       .  S
O1989     Zr1996   2.358       .  S
O1990     Zr1995   2.400       .  S
O1990     Zr1996   2.392       .  S
O1990      H2025   0.966       .  S
O1991     Zr1994   2.412       .  S
O1991     Zr2011   2.413       .  S
O1991      H2028   0.965       .  S
O1992     Zr1995   2.370       .  S
O1992     Zr2011   2.373       .  S
Zr1993     O2018   2.436       .  S
Zr1993     O2012   2.428       .  S
Zr1993     O2020   2.430       .  S
Zr1993     O2008   2.473       .  S
Zr1993     O1999   2.413       .  S
Zr1993     O2000   2.413       .  S
Zr1993     O2001   2.361       .  S
Zr1993     O2002   2.390       .  S
Zr1994     O2013   2.440       .  S
Zr1994     O2006   2.433       .  S
Zr1994     O2007   2.420       .  S
Zr1994     O2000   2.393       .  S
Zr1994     O2001   2.380       .  S
Zr1995     O1997   2.436       .  S
Zr1995     O2019   2.437       .  S
Zr1995     O2021   2.425       .  S
Zr1995     O1999   2.394       .  S
Zr1995     O2002   2.393       .  S
Zr1996     O2022   2.435       .  S
Zr1996     O2023   2.434       .  S
Zr1996     O1998   2.436       .  S
Zr1996     O1999   2.395       .  S
Zr1996     O2000   2.426       .  S
O1997      H2034   0.990       .  S
O1998      H2029   0.990       .  S
O1998      H2043   0.990       .  S
O2000      H2026   0.966       .  S
O2001     Zr2011   2.360       .  S
O2002     Zr2011   2.380       .  S
O2002      H2027   0.966       .  S
C2003      C2128   1.486       .  S
C2004      C2140   1.466       .  S
C2005      C2113   1.443       .  S
O2006      H2042   0.990       .  S
O2007      C2009   1.280       .  A
O2008      C2009   1.290       .  A
C2009      C2272   1.485       .  S
O2010     Zr2011   2.439       .  S
O2010      H2039   0.990       .  S
Zr2011     O2014   2.437       .  S
Zr2011     O2015   2.439       .  S
Zr2011     O2016   2.440       .  S
O2012      C2017   1.283       .  A
O2013      H2030   0.989       .  S
O2013      H2045   0.988       .  S
O2014      H2031   0.990       .  S
O2015      H2035   0.990       .  S
O2015      H2044   0.990       .  S
O2016      C2017   1.286       .  A
C2017      C3136   1.475       .  S
O2018      H2037   0.990       .  S
O2018      H2041   0.990       .  S
O2019      H2033   0.990       .  S
O2019      H2040   0.990       .  S
O2020      C2024   1.285       .  A
O2021      C2024   1.283       .  A
O2022      H2032   0.990       .  S
O2023      H2036   0.990       .  S
C2024      C2476   1.462       .  S
Zr2047     O2048   2.442       .  S
Zr2047     O2049   2.441       .  S
Zr2047     O2050   2.404       .  S
Zr2047     O2053   2.431       .  S
Zr2047     O2055   2.374       .  S
Zr2047     O2056   2.382       .  S
Zr2047     O2057   2.427       .  S
Zr2047     O2058   2.395       .  S
O2048      H2104   0.990       .  S
O2048      H2112   0.991       .  S
O2049      C2069   1.285       .  A
O2050      C2071   1.275       .  A
O2051     Zr2061   2.444       .  S
O2051      C2070   1.284       .  A
O2052     Zr2060   2.422       .  S
O2052      C2071   1.275       .  A
O2053      C2070   1.280       .  A
O2054     Zr2062   2.455       .  S
O2054      C2069   1.286       .  A
O2055     Zr2060   2.381       .  S
O2055     Zr2062   2.359       .  S
O2056     Zr2061   2.405       .  S
O2056     Zr2062   2.390       .  S
O2056      H2091   0.966       .  S
O2057     Zr2060   2.403       .  S
O2057     Zr2077   2.395       .  S
O2057      H2094   0.962       .  S
O2058     Zr2061   2.378       .  S
O2058     Zr2077   2.376       .  S
Zr2059     O2084   2.439       .  S
Zr2059     O2078   2.442       .  S
Zr2059     O2086   2.431       .  S
Zr2059     O2074   2.485       .  S
Zr2059     O2065   2.413       .  S
Zr2059     O2066   2.417       .  S
Zr2059     O2067   2.360       .  S
Zr2059     O2068   2.391       .  S
Zr2060     O2079   2.439       .  S
Zr2060     O2072   2.434       .  S
Zr2060     O2073   2.408       .  S
Zr2060     O2066   2.389       .  S
Zr2060     O2067   2.381       .  S
Zr2061     O2063   2.436       .  S
Zr2061     O2085   2.437       .  S
Zr2061     O2087   2.426       .  S
Zr2061     O2065   2.394       .  S
Zr2061     O2068   2.395       .  S
Zr2062     O2088   2.435       .  S
Zr2062     O2089   2.434       .  S
Zr2062     O2064   2.436       .  S
Zr2062     O2065   2.399       .  S
Zr2062     O2066   2.425       .  S
O2063      H2100   0.990       .  S
O2064      H2095   0.990       .  S
O2064      H2109   0.990       .  S
O2066      H2092   0.966       .  S
O2067     Zr2077   2.353       .  S
O2068     Zr2077   2.378       .  S
O2068      H2093   0.966       .  S
C2069      C2245   1.489       .  S
C2070      C2260   1.465       .  S
C2071      C2116   1.445       .  S
O2072      H2108   0.990       .  S
O2073      C2075   1.282       .  A
O2074      C2075   1.294       .  A
C2075      C2149   1.496       .  S
O2076     Zr2077   2.439       .  S
O2076      H2105   0.990       .  S
Zr2077     O2080   2.437       .  S
Zr2077     O2081   2.439       .  S
Zr2077     O2082   2.423       .  S
O2078      C2083   1.286       .  A
O2079      H2096   0.990       .  S
O2079      H2111   0.989       .  S
O2080      H2097   0.990       .  S
O2081      H2101   0.990       .  S
O2081      H2110   0.990       .  S
O2082      C2083   1.283       .  A
C2083      C2992   1.480       .  S
O2084      H2103   0.990       .  S
O2084      H2107   0.990       .  S
O2085      H2099   0.990       .  S
O2085      H2106   0.990       .  S
O2086      C2090   1.287       .  A
O2087      C2090   1.283       .  A
O2088      H2098   0.990       .  S
O2089      H2102   0.990       .  S
C2090      C2329   1.469       .  S
C2113      C2114   1.394       .  A
C2113      C2118   1.404       .  A
C2114      C2115   1.381       .  A
C2114      H2119   1.083       .  S
C2115      C2116   1.403       .  A
C2115      O2120   1.371       .  S
C2116      C2117   1.401       .  A
C2117      C2118   1.398       .  A
C2117      H2121   1.084       .  S
C2118      O2122   1.371       .  S
O2120      H2124   0.992       .  S
O2122      H2123   0.992       .  S
C2125      C2126   1.407       .  A
C2125      C2130   1.417       .  A
C2126      C2127   1.398       .  A
C2126      H2131   1.084       .  S
C2127      C2128   1.406       .  A
C2127      O2132   1.371       .  S
C2128      C2129   1.406       .  A
C2129      C2130   1.414       .  A
C2129      H2133   1.083       .  S
C2130      O2134   1.371       .  S
O2132      H2136   0.992       .  S
O2134      H2135   0.991       .  S
C2137      C2138   1.406       .  A
C2137      C2142   1.403       .  A
C2138      C2139   1.401       .  A
C2138      H2143   1.084       .  S
C2139      C2140   1.403       .  A
C2139      O2144   1.371       .  S
C2140      C2141   1.405       .  A
C2141      C2142   1.399       .  A
C2141      H2145   1.084       .  S
C2142      O2146   1.371       .  S
O2144      H2148   0.992       .  S
O2146      H2147   0.992       .  S
C2149      C2150   1.411       .  A
C2149      C2154   1.414       .  A
C2150      C2151   1.415       .  A
C2150      H2155   1.083       .  S
C2151      C2152   1.410       .  A
C2151      O2156   1.370       .  S
C2152      C2153   1.402       .  A
C2153      C2154   1.398       .  A
C2153      H2157   1.084       .  S
C2154      O2158   1.373       .  S
O2156      H2160   0.992       .  S
O2158      H2159   0.992       .  S
C2161      C2162   1.407       .  A
C2161      C2166   1.406       .  A
C2162      C2163   1.392       .  A
C2162      H2167   1.083   1_556  S
C2163      C2164   1.403       .  A
C2163      O2168   1.373   1_556  S
C2164      C2165   1.405       .  A
C2165      C2166   1.393       .  A
C2165      H2169   1.083       .  S
C2166      O2170   1.372       .  S
O2168      H2172   0.992       .  S
O2170      H2171   0.991       .  S
C2173      C2174   1.403   1_556  A
C2173      C2178   1.411   1_556  A
C2174      C2175   1.400       .  A
C2174      H2179   1.084   1_554  S
C2175      C2176   1.415       .  A
C2175      O2180   1.372       .  S
C2176      C2177   1.413       .  A
C2177      C2178   1.417       .  A
C2177      H2181   1.083       .  S
C2178      O2182   1.371   1_554  S
O2180      H2184   0.992       .  S
O2182      H2183   0.992   1_556  S
C2185      C2186   1.412       .  A
C2185      C2190   1.408       .  A
C2186      C2187   1.409       .  A
C2186      H2191   1.083       .  S
C2187      C2188   1.405       .  A
C2187      O2192   1.371       .  S
C2188      C2189   1.401       .  A
C2189      C2190   1.391       .  A
C2189      H2193   1.085       .  S
C2190      O2194   1.373       .  S
O2192      H2196   0.992       .  S
O2194      H2195   0.992       .  S
C2197      C2198   1.411       .  A
C2197      C2202   1.409       .  A
C2198      C2199   1.415       .  A
C2198      H2203   1.083       .  S
C2199      C2200   1.409       .  A
C2199      O2204   1.370       .  S
C2200      C2201   1.403       .  A
C2201      C2202   1.395       .  A
C2201      H2205   1.085       .  S
C2202      O2206   1.373       .  S
O2204      H2208   0.992       .  S
O2206      H2207   0.992       .  S
C2209      C2210   1.402       .  A
C2209      C2214   1.399       .  A
C2210      C2211   1.402       .  A
C2210      H2215   1.084       .  S
C2211      C2212   1.407       .  A
C2211      O2216   1.371       .  S
C2212      C2213   1.395       .  A
C2213      C2214   1.379       .  A
C2213      H2217   1.085       .  S
C2214      O2218   1.365       .  S
O2216      H2220   0.992       .  S
O2218      H2219   0.992       .  S
C2221      C2222   1.399       .  A
C2221      C2226   1.413       .  A
C2222      C2223   1.383       .  A
C2222      H2227   1.080       .  S
C2223      C2224   1.411       .  A
C2223      O2228   1.371       .  S
C2224      C2225   1.414       .  A
C2225      C2226   1.418       .  A
C2225      H2229   1.083       .  S
C2226      O2230   1.371       .  S
O2228      H2232   0.992       .  S
O2230      H2231   0.992       .  S
C2233      C2234   1.402       .  A
C2233      C2238   1.414       .  A
C2234      C2235   1.400       .  A
C2234      H2239   1.084       .  S
C2235      C2236   1.409       .  A
C2235      O2240   1.370       .  S
C2236      C2237   1.408       .  A
C2237      C2238   1.417       .  A
C2237      H2241   1.083       .  S
C2238      O2242   1.371       .  S
O2240      H2244   0.990       .  S
O2242      H2243   0.991       .  S
C2245      C2246   1.401       .  A
C2245      C2250   1.411       .  A
C2246      C2247   1.399       .  A
C2246      H2251   1.084       .  S
C2247      C2248   1.417       .  A
C2247      O2252   1.372       .  S
C2248      C2249   1.411       .  A
C2249      C2250   1.415       .  A
C2249      H2253   1.083       .  S
C2250      O2254   1.371       .  S
O2252      H2256   0.992       .  S
O2254      H2255   0.992       .  S
C2257      C2258   1.397       .  A
C2257      C2262   1.408       .  A
C2258      C2259   1.401       .  A
C2258      H2263   1.084       .  S
C2259      C2260   1.411       .  A
C2259      O2264   1.370       .  S
C2260      C2261   1.397       .  A
C2261      C2262   1.398       .  A
C2261      H2265   1.084       .  S
C2262      O2266   1.370       .  S
O2264      H2268   0.991       .  S
O2266      H2267   0.992       .  S
C2269      C2270   1.406       .  A
C2269      C2274   1.408       .  A
C2270      C2271   1.408       .  A
C2270      H2275   1.084       .  S
C2271      C2272   1.409       .  A
C2271      O2276   1.371       .  S
C2272      C2273   1.406       .  A
C2273      C2274   1.407       .  A
C2273      H2277   1.084       .  S
C2274      O2278   1.371       .  S
O2276      H2280   0.992       .  S
O2278      H2279   0.992       .  S
C2281      C2282   1.400       .  A
C2281      C2286   1.414       .  A
C2282      C2283   1.392       .  A
C2282      H2287   1.082       .  S
C2283      C2284   1.412       .  A
C2283      O2288   1.374       .  S
C2284      C2285   1.400       .  A
C2285      C2286   1.392       .  A
C2285      H2289   1.084       .  S
C2286      O2290   1.371       .  S
O2288      H2292   0.992       .  S
O2290      H2291   0.992       .  S
C2293      C2294   1.409       .  A
C2293      C2298   1.407       .  A
C2294      C2295   1.411       .  A
C2294      H2299   1.083       .  S
C2295      C2296   1.407       .  A
C2295      O2300   1.370       .  S
C2296      C2297   1.404       .  A
C2297      C2298   1.398       .  A
C2297      H2301   1.085       .  S
C2298      O2302   1.373       .  S
O2300      H2304   0.992       .  S
O2302      H2303   0.992       .  S
C2305      C2306   1.401       .  A
C2305      C2310   1.409       .  A
C2306      C2307   1.398       .  A
C2306      H2311   1.084       .  S
C2307      C2308   1.417       .  A
C2307      O2312   1.372       .  S
C2308      C2309   1.405       .  A
C2309      C2310   1.396       .  A
C2309      H2313   1.083       .  S
C2310      O2314   1.372       .  S
O2312      H2316   0.992       .  S
O2314      H2315   0.992       .  S
C2317      C2318   1.394       .  A
C2317      C2322   1.405       .  A
C2318      C2319   1.375       .  A
C2318      H2323   1.086       .  S
C2319      C2320   1.406       .  A
C2319      O2324   1.374       .  S
C2320      C2321   1.398       .  A
C2321      C2322   1.395       .  A
C2321      H2325   1.084       .  S
C2322      O2326   1.371   1_545  S
O2324      H2328   0.992       .  S
O2326      H2327   0.992       .  S
C2329      C2330   1.397       .  A
C2329      C2334   1.408       .  A
C2330      C2331   1.392       .  A
C2330      H2335   1.085       .  S
C2331      C2332   1.415       .  A
C2331      O2336   1.373       .  S
C2332      C2333   1.408       .  A
C2333      C2334   1.406       .  A
C2333      H2337   1.083       .  S
C2334      O2338   1.371       .  S
O2336      H2340   0.992       .  S
O2338      H2339   0.992       .  S
C2341      C2342   1.410       .  A
C2341      C2346   1.415       .  A
C2342      C2343   1.403       .  A
C2342      H2347   1.083       .  S
C2343      C2344   1.409       .  A
C2343      O2348   1.371       .  S
C2344      C2345   1.403       .  A
C2345      C2346   1.397       .  A
C2345      H2349   1.084       .  S
C2346      O2350   1.371       .  S
O2348      H2352   0.992       .  S
O2350      H2351   0.992       .  S
C2353      C2354   1.409       .  A
C2353      C2358   1.417       .  A
C2354      C2355   1.398       .  A
C2354      H2359   1.083       .  S
C2355      C2356   1.416       .  A
C2355      O2360   1.373       .  S
C2356      C2357   1.411       .  A
C2357      C2358   1.420       .  A
C2357      H2361   1.083   1_554  S
C2358      O2362   1.370       .  S
O2360      H2364   0.991       .  S
O2362      H2363   0.992   1_554  S
C2365      C2366   1.398       .  A
C2365      C2370   1.410       .  A
C2366      C2367   1.396       .  A
C2366      H2371   1.084       .  S
C2367      C2368   1.409       .  A
C2367      O2372   1.372       .  S
C2368      C2369   1.402       .  A
C2369      C2370   1.406       .  A
C2369      H2373   1.083       .  S
C2370      O2374   1.371       .  S
O2372      H2376   0.992       .  S
O2374      H2375   0.992       .  S
C2377      C2378   1.417       .  A
C2377      C2382   1.404       .  A
C2378      C2379   1.421       .  A
C2378      H2383   1.083       .  S
C2379      C2380   1.414       .  A
C2379      O2384   1.371       .  S
C2380      C2381   1.398       .  A
C2381      C2382   1.385       .  A
C2381      H2385   1.074       .  S
C2382      O2386   1.372       .  S
O2384      H2388   0.992       .  S
O2386      H2387   0.992       .  S
C2389      C2390   1.412       .  A
C2389      C2394   1.407       .  A
C2390      C2391   1.416       .  A
C2390      H2395   1.083       .  S
C2391      C2392   1.409       .  A
C2391      O2396   1.370       .  S
C2392      C2393   1.406       .  A
C2393      C2394   1.395       .  A
C2393      H2397   1.084       .  S
C2394      O2398   1.373       .  S
O2396      H2400   0.992       .  S
O2398      H2399   0.992       .  S
C2401      C2402   1.401       .  A
C2401      C2406   1.402       .  A
C2402      C2403   1.398   1_545  A
C2402      H2407   1.083       .  S
C2403      C2404   1.402       .  A
C2403      O2408   1.371       .  S
C2404      C2405   1.392       .  A
C2405      C2406   1.372   1_565  A
C2405      H2409   1.086       .  S
C2406      O2410   1.374       .  S
O2408      H2412   0.992       .  S
O2410      H2411   0.992       .  S
C2413      C2414   1.404       .  A
C2413      C2418   1.414       .  A
C2414      C2415   1.401       .  A
C2414      H2419   1.084       .  S
C2415      C2416   1.415       .  A
C2415      O2420   1.372       .  S
C2416      C2417   1.403       .  A
C2417      C2418   1.396       .  A
C2417      H2421   1.083       .  S
C2418      O2422   1.372       .  S
O2420      H2424   0.992       .  S
O2422      H2423   0.992       .  S
C2425      C2426   1.403       .  A
C2425      C2430   1.415       .  A
C2426      C2427   1.398       .  A
C2426      H2431   1.084       .  S
C2427      C2428   1.412       .  A
C2427      O2432   1.373       .  S
C2428      C2429   1.408       .  A
C2429      C2430   1.416       .  A
C2429      H2433   1.083       .  S
C2430      O2434   1.371       .  S
O2432      H2436   0.992       .  S
O2434      H2435   0.992       .  S
C2437      C2438   1.414       .  A
C2437      C2442   1.410       .  A
C2438      C2439   1.417       .  A
C2438      H2443   1.083       .  S
C2439      C2440   1.414       .  A
C2439      O2444   1.371       .  S
C2440      C2441   1.400       .  A
C2441      C2442   1.389       .  A
C2441      H2445   1.081       .  S
C2442      O2446   1.372       .  S
O2444      H2448   0.992       .  S
O2446      H2447   0.992       .  S
C2449      C2450   1.409       .  A
C2449      C2454   1.418       .  A
C2450      C2451   1.417       .  A
C2450      H2455   1.083       .  S
C2451      C2452   1.414       .  A
C2451      O2456   1.371       .  S
C2452      C2453   1.401       .  A
C2453      C2454   1.401       .  A
C2453      H2457   1.084       .  S
C2454      O2458   1.372       .  S
O2456      H2460   0.992       .  S
O2458      H2459   0.991       .  S
C2461      C2462   1.400       .  A
C2461      C2466   1.401       .  A
C2462      C2463   1.398       .  A
C2462      H2467   1.084       .  S
C2463      C2464   1.404       .  A
C2463      O2468   1.371       .  S
C2464      C2465   1.394       .  A
C2465      C2466   1.380       .  A
C2465      H2469   1.081       .  S
C2466      O2470   1.372       .  S
O2468      H2472   0.991       .  S
O2470      H2471   0.992       .  S
C2473      C2474   1.404       .  A
C2473      C2478   1.404       .  A
C2474      C2475   1.403       .  A
C2474      H2479   1.084       .  S
C2475      C2476   1.406       .  A
C2475      O2480   1.371       .  S
C2476      C2477   1.400       .  A
C2477      C2478   1.394       .  A
C2477      H2481   1.084       .  S
C2478      O2482   1.372       .  S
O2480      H2484   0.992       .  S
O2482      H2483   0.992       .  S
C2485      C2486   1.407       .  A
C2485      C2490   1.410       .  A
C2486      C2487   1.405       .  A
C2486      H2491   1.083       .  S
C2487      C2488   1.414       .  A
C2487      O2492   1.371       .  S
C2488      C2489   1.407       .  A
C2489      C2490   1.396       .  A
C2489      H2493   1.083       .  S
C2490      O2494   1.371       .  S
O2492      H2496   0.992       .  S
O2494      H2495   0.992       .  S
C2497      C2498   1.413       .  A
C2497      C2502   1.410       .  A
C2498      C2499   1.417       .  A
C2498      H2503   1.083       .  S
C2499      C2500   1.414       .  A
C2499      O2504   1.371       .  S
C2500      C2501   1.399       .  A
C2501      C2502   1.397       .  A
C2501      H2505   1.079       .  S
C2502      O2506   1.380       .  S
O2504      H2508   0.992       .  S
O2506      H2507   0.992       .  S
C2509      C2510   1.411       .  A
C2509      C2514   1.414       .  A
C2510      C2511   1.416       .  A
C2510      H2515   1.083       .  S
C2511      C2512   1.416       .  A
C2511      O2516   1.371       .  S
C2512      C2513   1.407       .  A
C2513      C2514   1.399       .  A
C2513      H2517   1.083       .  S
C2514      O2518   1.371       .  S
O2516      H2520   0.992       .  S
O2518      H2519   0.992       .  S
C2521      C2522   1.408       .  A
C2521      C2526   1.408       .  A
C2522      C2523   1.398       .  A
C2522      H2527   1.085       .  S
C2523      C2524   1.405       .  A
C2523      O2528   1.373       .  S
C2524      C2525   1.413       .  A
C2525      C2526   1.416       .  A
C2525      H2529   1.083       .  S
C2526      O2530   1.370       .  S
O2528      H2532   0.992   1_565  S
O2530      H2531   0.992       .  S
C2533      C2534   1.410       .  A
C2533      C2538   1.414       .  A
C2534      C2535   1.401       .  A
C2534      H2539   1.083       .  S
C2535      C2536   1.406       .  A
C2535      O2540   1.372       .  S
C2536      C2537   1.402       .  A
C2537      C2538   1.400       .  A
C2537      H2541   1.084       .  S
C2538      O2542   1.372       .  S
O2540      H2544   0.992       .  S
O2542      H2543   0.992       .  S
C2545      C2546   1.415       .  A
C2545      C2550   1.411       .  A
C2546      C2547   1.420       .  A
C2546      H2551   1.083       .  S
C2547      C2548   1.415       .  A
C2547      O2552   1.371       .  S
C2548      C2549   1.399       .  A
C2549      C2550   1.398       .  A
C2549      H2553   1.081       .  S
C2550      O2554   1.382       .  S
O2552      H2556   0.992       .  S
O2554      H2555   0.992       .  S
C2557      C2558   1.404       .  A
C2557      C2562   1.412       .  A
C2558      C2559   1.400       .  A
C2558      H2563   1.084       .  S
C2559      C2560   1.414       .  A
C2559      O2564   1.372       .  S
C2560      C2561   1.411       .  A
C2561      C2562   1.416       .  A
C2561      H2565   1.083       .  S
C2562      O2566   1.371       .  S
O2564      H2568   0.992       .  S
O2566      H2567   0.992       .  S
C2569      C2570   1.395       .  A
C2569      C2574   1.406       .  A
C2570      C2571   1.373   1_565  A
C2570      H2575   1.084       .  S
C2571      C2572   1.400       .  A
C2571      O2576   1.368       .  S
C2572      C2573   1.406   1_545  A
C2573      C2574   1.400       .  A
C2573      H2577   1.084   1_565  S
C2574      O2578   1.370       .  S
O2576      H2580   0.991       .  S
O2578      H2579   0.992       .  S
C2581      C2582   1.406       .  A
C2581      C2586   1.414       .  A
C2582      C2583   1.400       .  A
C2582      H2587   1.084       .  S
C2583      C2584   1.409       .  A
C2583      O2588   1.372       .  S
C2584      C2585   1.409       .  A
C2585      C2586   1.416       .  A
C2585      H2589   1.083       .  S
C2586      O2590   1.370       .  S
O2588      H2592   0.992   1_545  S
O2590      H2591   0.991       .  S
C2593      C2594   1.403       .  A
C2593      C2598   1.410       .  A
C2594      C2595   1.403       .  A
C2594      H2599   1.084       .  S
C2595      C2596   1.417   1_655  A
C2595      O2600   1.372       .  S
C2596      C2597   1.407       .  A
C2597      C2598   1.398   1_455  A
C2597      H2601   1.083       .  S
C2598      O2602   1.372       .  S
O2600      H2604   0.992       .  S
O2602      H2603   0.992       .  S
C2605      C2606   1.401       .  A
C2605      C2610   1.415       .  A
C2606      C2607   1.391       .  A
C2606      H2611   1.082       .  S
C2607      C2608   1.412   1_565  A
C2607      O2612   1.372   1_565  S
C2608      C2609   1.399       .  A
C2609      C2610   1.393   1_545  A
C2609      H2613   1.084       .  S
C2610      O2614   1.373       .  S
O2612      H2616   0.992       .  S
O2614      H2615   0.992       .  S
C2617      C2618   1.404       .  A
C2617      C2622   1.407       .  A
C2618      C2619   1.402   1_655  A
C2618      H2623   1.084       .  S
C2619      C2620   1.415       .  A
C2619      O2624   1.372       .  S
C2620      C2621   1.411   1_455  A
C2621      C2622   1.401       .  A
C2621      H2625   1.083       .  S
C2622      O2626   1.372       .  S
O2624      H2628   0.992       .  S
O2626      H2627   0.992       .  S
C2629      C2630   1.411       .  A
C2629      C2634   1.413       .  A
C2630      C2631   1.401       .  A
C2630      H2635   1.083       .  S
C2631      C2632   1.406       .  A
C2631      O2636   1.371       .  S
C2632      C2633   1.404       .  A
C2633      C2634   1.397       .  A
C2633      H2637   1.084       .  S
C2634      O2638   1.372       .  S
O2636      H2640   0.992       .  S
O2638      H2639   0.992       .  S
C2641      C2642   1.403       .  A
C2641      C2646   1.414       .  A
C2642      C2643   1.391       .  A
C2642      H2647   1.081       .  S
C2643      C2644   1.416       .  A
C2643      O2648   1.371       .  S
C2644      C2645   1.415       .  A
C2645      C2646   1.422       .  A
C2645      H2649   1.083       .  S
C2646      O2650   1.370       .  S
O2648      H2652   0.990       .  S
O2650      H2651   0.992       .  S
C2653      C2654   1.404       .  A
C2653      C2658   1.415   1_655  A
C2654      C2655   1.401   1_655  A
C2654      H2659   1.083       .  S
C2655      C2656   1.407       .  A
C2655      O2660   1.372       .  S
C2656      C2657   1.395       .  A
C2657      C2658   1.394       .  A
C2657      H2661   1.084       .  S
C2658      O2662   1.372       .  S
O2660      H2664   0.992       .  S
O2662      H2663   0.992   1_455  S
C2665      C2666   1.405       .  A
C2665      C2670   1.402       .  A
C2666      C2667   1.397       .  A
C2666      H2671   1.084       .  S
C2667      C2668   1.402       .  A
C2667      O2672   1.371       .  S
C2668      C2669   1.405       .  A
C2669      C2670   1.400       .  A
C2669      H2673   1.084       .  S
C2670      O2674   1.371       .  S
O2672      H2676   0.992       .  S
O2674      H2675   0.992       .  S
C2677      C2678   1.402       .  A
C2677      C2682   1.414       .  A
C2678      C2679   1.400       .  A
C2678      H2683   1.084   1_545  S
C2679      C2680   1.410       .  A
C2679      O2684   1.373       .  S
C2680      C2681   1.405       .  A
C2681      C2682   1.413       .  A
C2681      H2685   1.083       .  S
C2682      O2686   1.371       .  S
O2684      H2688   0.992       .  S
O2686      H2687   0.992       .  S
C2689      C2690   1.399       .  A
C2689      C2694   1.414   1_556  A
C2690      C2691   1.391       .  A
C2690      H2695   1.084       .  S
C2691      C2692   1.412       .  A
C2691      O2696   1.370       .  S
C2692      C2693   1.398       .  A
C2693      C2694   1.393   1_556  A
C2693      H2697   1.084   1_556  S
C2694      O2698   1.373       .  S
O2696      H2700   0.992       .  S
O2698      H2699   0.992       .  S
C2701      C2702   1.410       .  A
C2701      C2706   1.412       .  A
C2702      C2703   1.399       .  A
C2702      H2707   1.083       .  S
C2703      C2704   1.405       .  A
C2703      O2708   1.371       .  S
C2704      C2705   1.404       .  A
C2705      C2706   1.395       .  A
C2705      H2709   1.084       .  S
C2706      O2710   1.372       .  S
O2708      H2712   0.992       .  S
O2710      H2711   0.992       .  S
C2713      C2714   1.411       .  A
C2713      C2718   1.410       .  A
C2714      C2715   1.415       .  A
C2714      H2719   1.083       .  S
C2715      C2716   1.410       .  A
C2715      O2720   1.370       .  S
C2716      C2717   1.404       .  A
C2717      C2718   1.400       .  A
C2717      H2721   1.084       .  S
C2718      O2722   1.373       .  S
O2720      H2724   0.991       .  S
O2722      H2723   0.992       .  S
C2725      C2726   1.396       .  A
C2725      C2730   1.408   1_655  A
C2726      C2727   1.387   1_655  A
C2726      H2731   1.084       .  S
C2727      C2728   1.418       .  A
C2727      O2732   1.372       .  S
C2728      C2729   1.407       .  A
C2729      C2730   1.402       .  A
C2729      H2733   1.083       .  S
C2730      O2734   1.372   1_455  S
O2732      H2736   0.992       .  S
O2734      H2735   0.992   1_655  S
C2737      C2738   1.410       .  A
C2737      C2742   1.406       .  A
C2738      C2739   1.408       .  A
C2738      H2743   1.083       .  S
C2739      C2740   1.405       .  A
C2739      O2744   1.371       .  S
C2740      C2741   1.403       .  A
C2741      C2742   1.393       .  A
C2741      H2745   1.084       .  S
C2742      O2746   1.373       .  S
O2744      H2748   0.992       .  S
O2746      H2747   0.992       .  S
C2749      C2750   1.401       .  A
C2749      C2754   1.412       .  A
C2750      C2751   1.399       .  A
C2750      H2755   1.084       .  S
C2751      C2752   1.410       .  A
C2751      O2756   1.373       .  S
C2752      C2753   1.405       .  A
C2753      C2754   1.411       .  A
C2753      H2757   1.083       .  S
C2754      O2758   1.371       .  S
O2756      H2760   0.992       .  S
O2758      H2759   0.991       .  S
C2761      C2762   1.405       .  A
C2761      C2766   1.406       .  A
C2762      C2763   1.398       .  A
C2762      H2767   1.084   1_545  S
C2763      C2764   1.401       .  A
C2763      O2768   1.371   1_545  S
C2764      C2765   1.391       .  A
C2765      C2766   1.378       .  A
C2765      H2769   1.083       .  S
C2766      O2770   1.372       .  S
O2768      H2772   0.992       .  S
O2770      H2771   0.992       .  S
C2773      C2774   1.406       .  A
C2773      C2778   1.403       .  A
C2774      C2775   1.401       .  A
C2774      H2779   1.084       .  S
C2775      C2776   1.403       .  A
C2775      O2780   1.371       .  S
C2776      C2777   1.405       .  A
C2777      C2778   1.401       .  A
C2777      H2781   1.084       .  S
C2778      O2782   1.371       .  S
O2780      H2784   0.992       .  S
O2782      H2783   0.992       .  S
C2785      C2786   1.400       .  A
C2785      C2790   1.411       .  A
C2786      C2787   1.400       .  A
C2786      H2791   1.084       .  S
C2787      C2788   1.414       .  A
C2787      O2792   1.373       .  S
C2788      C2789   1.410       .  A
C2789      C2790   1.415       .  A
C2789      H2793   1.083       .  S
C2790      O2794   1.371       .  S
O2792      H2796   0.992       .  S
O2794      H2795   0.992       .  S
C2797      C2798   1.407       .  A
C2797      C2802   1.417       .  A
C2798      C2799   1.399       .  A
C2798      H2803   1.083       .  S
C2799      C2800   1.411       .  A
C2799      O2804   1.372       .  S
C2800      C2801   1.404       .  A
C2801      C2802   1.404       .  A
C2801      H2805   1.084       .  S
C2802      O2806   1.372       .  S
O2804      H2808   0.992       .  S
O2806      H2807   0.992       .  S
C2809      C2810   1.412       .  A
C2809      C2814   1.414       .  A
C2810      C2811   1.417       .  A
C2810      H2815   1.083       .  S
C2811      C2812   1.411       .  A
C2811      O2816   1.371       .  S
C2812      C2813   1.403       .  A
C2813      C2814   1.398       .  A
C2813      H2817   1.084       .  S
C2814      O2818   1.372       .  S
O2816      H2820   0.992       .  S
O2818      H2819   0.992       .  S
C2821      C2822   1.399       .  A
C2821      C2826   1.408       .  A
C2822      C2823   1.403       .  A
C2822      H2827   1.083       .  S
C2823      C2824   1.411       .  A
C2823      O2828   1.371       .  S
C2824      C2825   1.396       .  A
C2825      C2826   1.394       .  A
C2825      H2829   1.084       .  S
C2826      O2830   1.371       .  S
O2828      H2832   0.991       .  S
O2830      H2831   0.992       .  S
C2833      C2834   1.405       .  A
C2833      C2838   1.408       .  A
C2834      C2835   1.411       .  A
C2834      H2839   1.083       .  S
C2835      C2836   1.413       .  A
C2835      O2840   1.371       .  S
C2836      C2837   1.403       .  A
C2837      C2838   1.401       .  A
C2837      H2841   1.084       .  S
C2838      O2842   1.372       .  S
O2840      H2844   0.991       .  S
O2842      H2843   0.992       .  S
C2845      C2846   1.394       .  A
C2845      C2850   1.403       .  A
C2846      C2847   1.380   1_545  A
C2846      H2851   1.083       .  S
C2847      C2848   1.403       .  A
C2847      O2852   1.371       .  S
C2848      C2849   1.403       .  A
C2849      C2850   1.398   1_565  A
C2849      H2853   1.084       .  S
C2850      O2854   1.371       .  S
O2852      H2856   0.992       .  S
O2854      H2855   0.992       .  S
C2857      C2858   1.407       .  A
C2857      C2862   1.414       .  A
C2858      C2859   1.392       .  A
C2858      H2863   1.083       .  S
C2859      C2860   1.407       .  A
C2859      O2864   1.372       .  S
C2860      C2861   1.404       .  A
C2861      C2862   1.403       .  A
C2861      H2865   1.084       .  S
C2862      O2866   1.371       .  S
O2864      H2868   0.992       .  S
O2866      H2867   0.992       .  S
C2869      C2870   1.404       .  A
C2869      C2874   1.408       .  A
C2870      C2871   1.404       .  A
C2870      H2875   1.084       .  S
C2871      C2872   1.408   1_554  A
C2871      O2876   1.372   1_545  S
C2872      C2873   1.408       .  A
C2873      C2874   1.410   1_556  A
C2873      H2877   1.084       .  S
C2874      O2878   1.371       .  S
O2876      H2880   0.992       .  S
O2878      H2879   0.991   1_554  S
C2881      C2882   1.399       .  A
C2881      C2886   1.408       .  A
C2882      C2883   1.394       .  A
C2882      H2887   1.084       .  S
C2883      C2884   1.416       .  A
C2883      O2888   1.372       .  S
C2884      C2885   1.410       .  A
C2885      C2886   1.408       .  A
C2885      H2889   1.083       .  S
C2886      O2890   1.371       .  S
O2888      H2892   0.992       .  S
O2890      H2891   0.992       .  S
C2893      C2894   1.403       .  A
C2893      C2898   1.404       .  A
C2894      C2895   1.407       .  A
C2894      H2899   1.083       .  S
C2895      C2896   1.414       .  A
C2895      O2900   1.371       .  S
C2896      C2897   1.405       .  A
C2897      C2898   1.394       .  A
C2897      H2901   1.084       .  S
C2898      O2902   1.373       .  S
O2900      H2904   0.992       .  S
O2902      H2903   0.992       .  S
C2905      C2906   1.411       .  A
C2905      C2910   1.412       .  A
C2906      C2907   1.397       .  A
C2906      H2911   1.083       .  S
C2907      C2908   1.406       .  A
C2907      O2912   1.372       .  S
C2908      C2909   1.406       .  A
C2909      C2910   1.400       .  A
C2909      H2913   1.084       .  S
C2910      O2914   1.372       .  S
O2912      H2916   0.992       .  S
O2914      H2915   0.992       .  S
C2917      C2918   1.400       .  A
C2917      C2922   1.404       .  A
C2918      C2919   1.391       .  A
C2918      H2923   1.081       .  S
C2919      C2920   1.403       .  A
C2919      O2924   1.371       .  S
C2920      C2921   1.398       .  A
C2921      C2922   1.377       .  A
C2921      H2925   1.085       .  S
C2922      O2926   1.373       .  S
O2924      H2928   0.992       .  S
O2926      H2927   0.992       .  S
C2929      C2930   1.403       .  A
C2929      C2934   1.408       .  A
C2930      C2931   1.403       .  A
C2930      H2935   1.083       .  S
C2931      C2932   1.416       .  A
C2931      O2936   1.371       .  S
C2932      C2933   1.407       .  A
C2933      C2934   1.397       .  A
C2933      H2937   1.083       .  S
C2934      O2938   1.372       .  S
O2936      H2940   0.992       .  S
O2938      H2939   0.992       .  S
C2941      C2942   1.409       .  A
C2941      C2946   1.413       .  A
C2942      C2943   1.397       .  A
C2942      H2947   1.083       .  S
C2943      C2944   1.407       .  A
C2943      O2948   1.372       .  S
C2944      C2945   1.403       .  A
C2945      C2946   1.398       .  A
C2945      H2949   1.084       .  S
C2946      O2950   1.372       .  S
O2948      H2952   0.992       .  S
O2950      H2951   0.992       .  S
C2953      C2954   1.397       .  A
C2953      C2958   1.417       .  A
C2954      C2955   1.386       .  A
C2954      H2959   1.078       .  S
C2955      C2956   1.405       .  A
C2955      O2960   1.370       .  S
C2956      C2957   1.417       .  A
C2957      C2958   1.423       .  A
C2957      H2961   1.083       .  S
C2958      O2962   1.370       .  S
O2960      H2964   0.992       .  S
O2962      H2963   0.992       .  S
C2965      C2966   1.403       .  A
C2965      C2970   1.415       .  A
C2966      C2967   1.398       .  A
C2966      H2971   1.084       .  S
C2967      C2968   1.411       .  A
C2967      O2972   1.371       .  S
C2968      C2969   1.411       .  A
C2969      C2970   1.421       .  A
C2969      H2973   1.083       .  S
C2970      O2974   1.370       .  S
O2972      H2976   0.992       .  S
O2974      H2975   0.991       .  S
C2977      C2978   1.407       .  A
C2977      C2982   1.418       .  A
C2978      C2979   1.404       .  A
C2978      H2983   1.083       .  S
C2979      C2980   1.408       .  A
C2979      O2984   1.372       .  S
C2980      C2981   1.396       .  A
C2981      C2982   1.390       .  A
C2981      H2985   1.084       .  S
C2982      O2986   1.373       .  S
O2984      H2988   0.992       .  S
O2986      H2987   0.992       .  S
C2989      C2990   1.399       .  A
C2989      C2994   1.406   1_655  A
C2990      C2991   1.394   1_655  A
C2990      H2995   1.085       .  S
C2991      C2992   1.410       .  A
C2991      O2996   1.373       .  S
C2992      C2993   1.409       .  A
C2993      C2994   1.408       .  A
C2993      H2997   1.083       .  S
C2994      O2998   1.371   1_455  S
O2996      H3000   0.992       .  S
O2998      H2999   0.992       .  S
C3001      C3002   1.398       .  A
C3001      C3006   1.401       .  A
C3002      C3003   1.369       .  A
C3002      H3007   1.085       .  S
C3003      C3004   1.399       .  A
C3003      O3008   1.374       .  S
C3004      C3005   1.401       .  A
C3005      C3006   1.395       .  A
C3005      H3009   1.084       .  S
C3006      O3010   1.371       .  S
O3008      H3012   0.992       .  S
O3010      H3011   0.992       .  S
C3013      C3014   1.408       .  A
C3013      C3018   1.415       .  A
C3014      C3015   1.395       .  A
C3014      H3019   1.083       .  S
C3015      C3016   1.404       .  A
C3015      O3020   1.372       .  S
C3016      C3017   1.405       .  A
C3017      C3018   1.410       .  A
C3017      H3021   1.083       .  S
C3018      O3022   1.371       .  S
O3020      H3024   0.992       .  S
O3022      H3023   0.992       .  S
C3025      C3026   1.413       .  A
C3025      C3030   1.414       .  A
C3026      C3027   1.419       .  A
C3026      H3031   1.083       .  S
C3027      C3028   1.412       .  A
C3027      O3032   1.370       .  S
C3028      C3029   1.404       .  A
C3029      C3030   1.403       .  A
C3029      H3033   1.084       .  S
C3030      O3034   1.373       .  S
O3032      H3036   0.992       .  S
O3034      H3035   0.992       .  S
C3037      C3038   1.410       .  A
C3037      C3042   1.412       .  A
C3038      C3039   1.403       .  A
C3038      H3043   1.083       .  S
C3039      C3040   1.405       .  A
C3039      O3044   1.371       .  S
C3040      C3041   1.401       .  A
C3041      C3042   1.392       .  A
C3041      H3045   1.084       .  S
C3042      O3046   1.372       .  S
O3044      H3048   0.992       .  S
O3046      H3047   0.992       .  S
C3049      C3050   1.404       .  A
C3049      C3054   1.406       .  A
C3050      C3051   1.393       .  A
C3050      H3055   1.083       .  S
C3051      C3052   1.409       .  A
C3051      O3056   1.374       .  S
C3052      C3053   1.415       .  A
C3053      C3054   1.415       .  A
C3053      H3057   1.083       .  S
C3054      O3058   1.370       .  S
O3056      H3060   0.993       .  S
O3058      H3059   0.991       .  S
C3061      C3062   1.412       .  A
C3061      C3066   1.414       .  A
C3062      C3063   1.423       .  A
C3062      H3067   1.083       .  S
C3063      C3064   1.416       .  A
C3063      O3068   1.370       .  S
C3064      C3065   1.407       .  A
C3065      C3066   1.397       .  A
C3065      H3069   1.084       .  S
C3066      O3070   1.372       .  S
O3068      H3072   0.992       .  S
O3070      H3071   0.991       .  S
C3073      C3074   1.410   1_455  A
C3073      C3078   1.413       .  A
C3074      C3075   1.400       .  A
C3074      H3079   1.083       .  S
C3075      C3076   1.406       .  A
C3075      O3080   1.371       .  S
C3076      C3077   1.403       .  A
C3077      C3078   1.397   1_655  A
C3077      H3081   1.084       .  S
C3078      O3082   1.372       .  S
O3080      H3084   0.992       .  S
O3082      H3083   0.992       .  S
C3085      C3086   1.410       .  A
C3085      C3090   1.414       .  A
C3086      C3087   1.399       .  A
C3086      H3091   1.083       .  S
C3087      C3088   1.407       .  A
C3087      O3092   1.372       .  S
C3088      C3089   1.403       .  A
C3089      C3090   1.400       .  A
C3089      H3093   1.084       .  S
C3090      O3094   1.372       .  S
O3092      H3096   0.992       .  S
O3094      H3095   0.992       .  S
C3097      C3098   1.398       .  A
C3097      C3102   1.398       .  A
C3098      C3099   1.392       .  A
C3098      H3103   1.083       .  S
C3099      C3100   1.402       .  A
C3099      O3104   1.372       .  S
C3100      C3101   1.395       .  A
C3101      C3102   1.373       .  A
C3101      H3105   1.086       .  S
C3102      O3106   1.373       .  S
O3104      H3108   0.992       .  S
O3106      H3107   0.992       .  S
C3109      C3110   1.410   1_455  A
C3109      C3114   1.414       .  A
C3110      C3111   1.399       .  A
C3110      H3115   1.083       .  S
C3111      C3112   1.406       .  A
C3111      O3116   1.371       .  S
C3112      C3113   1.404       .  A
C3113      C3114   1.399   1_655  A
C3113      H3117   1.084       .  S
C3114      O3118   1.372       .  S
O3116      H3120   0.992       .  S
O3118      H3119   0.992       .  S
C3121      C3122   1.409       .  A
C3121      C3126   1.418       .  A
C3122      C3123   1.396       .  A
C3122      H3127   1.084       .  S
C3123      C3124   1.414   1_554  A
C3123      O3128   1.373       .  S
C3124      C3125   1.411   1_556  A
C3125      C3126   1.422       .  A
C3125      H3129   1.083   1_554  S
C3126      O3130   1.369       .  S
O3128      H3132   0.992   1_554  S
O3130      H3131   0.992       .  S
C3133      C3134   1.409   1_655  A
C3133      C3138   1.414       .  A
C3134      C3135   1.403       .  A
C3134      H3139   1.083       .  S
C3135      C3136   1.407       .  A
C3135      O3140   1.372       .  S
C3136      C3137   1.401       .  A
C3137      C3138   1.401   1_455  A
C3137      H3141   1.084       .  S
C3138      O3142   1.372       .  S
O3140      H3144   0.992       .  S
O3142      H3143   0.992       .  S
C3145      C3146   1.405       .  A
C3145      C3150   1.406       .  A
C3146      C3147   1.394       .  A
C3146      H3151   1.084       .  S
C3147      C3148   1.407       .  A
C3147      O3152   1.374       .  S
C3148      C3149   1.414       .  A
C3149      C3150   1.414       .  A
C3149      H3153   1.083       .  S
C3150      O3154   1.371       .  S
O3152      H3156   0.992       .  S
O3154      H3155   0.992       .  S
C3157      C3158   1.409       .  A
C3157      C3162   1.411       .  A
C3158      C3159   1.421       .  A
C3158      H3163   1.083       .  S
C3159      C3160   1.417       .  A
C3159      O3164   1.370       .  S
C3160      C3161   1.403       .  A
C3161      C3162   1.399       .  A
C3161      H3165   1.084       .  S
C3162      O3166   1.368       .  S
O3164      H3168   0.991       .  S
O3166      H3167   0.991       .  S
C3169      C3170   1.401       .  A
C3169      C3174   1.408       .  A
C3170      C3171   1.400       .  A
C3170      H3175   1.084       .  S
C3171      C3172   1.417       .  A
C3171      O3176   1.372       .  S
C3172      C3173   1.407       .  A
C3173      C3174   1.398       .  A
C3173      H3177   1.083       .  S
C3174      O3178   1.372       .  S
O3176      H3180   0.992       .  S
O3178      H3179   0.992       .  S
C3181      C3182   1.411       .  A
C3181      C3186   1.418       .  A
C3182      C3183   1.404       .  A
C3182      H3187   1.083       .  S
C3183      C3184   1.407       .  A
C3183      O3188   1.371       .  S
C3184      C3185   1.409       .  A
C3185      C3186   1.418       .  A
C3185      H3189   1.083       .  S
C3186      O3190   1.371       .  S
O3188      H3192   0.992       .  S
O3190      H3191   0.991       .  S
C3193      C3194   1.407       .  A
C3193      C3198   1.416       .  A
C3194      C3195   1.398       .  A
C3194      H3199   1.083       .  S
C3195      C3196   1.410       .  A
C3195      O3200   1.372       .  S
C3196      C3197   1.403       .  A
C3197      C3198   1.400       .  A
C3197      H3201   1.084       .  S
C3198      O3202   1.371       .  S
O3200      H3204   0.992       .  S
O3202      H3203   0.992       .  S
C3205      C3206   1.407       .  A
C3205      C3210   1.403       .  A
C3206      C3207   1.395       .  A
C3206      H3211   1.081       .  S
C3207      C3208   1.401       .  A
C3207      O3212   1.371       .  S
C3208      C3209   1.414       .  A
C3209      C3210   1.410       .  A
C3209      H3213   1.083       .  S
C3210      O3214   1.371       .  S
O3212      H3216   0.992       .  S
O3214      H3215   0.992       .  S
C3217      C3218   1.405       .  A
C3217      C3222   1.413       .  A
C3218      C3219   1.401       .  A
C3218      H3223   1.084       .  S
C3219      C3220   1.416       .  A
C3219      O3224   1.372       .  S
C3220      C3221   1.414       .  A
C3221      C3222   1.422       .  A
C3221      H3225   1.083       .  S
C3222      O3226   1.371       .  S
O3224      H3228   0.991       .  S
O3226      H3227   0.992       .  S
C3229      C3230   1.406       .  A
C3229      C3234   1.405       .  A
C3230      C3231   1.384       .  A
C3230      H3235   1.084       .  S
C3231      C3232   1.400       .  A
C3231      O3236   1.370       .  S
C3232      C3233   1.408       .  A
C3233      C3234   1.386       .  A
C3233      H3237   1.084       .  S
C3234      O3238   1.372       .  S
O3236      H3240   0.992       .  S
O3238      H3239   0.991       .  S
C3241      C3242   1.408       .  A
C3241      C3246   1.413       .  A
C3242      C3243   1.393       .  A
C3242      H3247   1.083       .  S
C3243      C3244   1.407       .  A
C3243      O3248   1.371       .  S
C3244      C3245   1.406       .  A
C3245      C3246   1.403       .  A
C3245      H3249   1.084       .  S
C3246      O3250   1.371       .  S
O3248      H3252   0.992       .  S
O3250      H3251   0.992       .  S
C3253      C3254   1.407       .  A
C3253      C3258   1.417       .  A
C3254      C3255   1.402       .  A
C3254      H3259   1.084       .  S
C3255      C3256   1.412       .  A
C3255      O3260   1.373       .  S
C3256      C3257   1.409       .  A
C3257      C3258   1.419       .  A
C3257      H3261   1.083       .  S
C3258      O3262   1.371       .  S
O3260      H3264   0.992       .  S
O3262      H3263   0.991       .  S
