geometry optimzed in LAMMPS
_audit_creation_date              2020-12-01 
_audit_creation_method            'lammps2cif' 
_symmetry_space_group_name_H-M    'P1' 
_symmetry_Int_Tables_number       1 
_symmetry_cell_setting            triclinic 
loop_ 
_symmetry_equiv_pos_as_xyz 
  x,y,z 
_cell_length_a                    38.7663878 
_cell_length_b                    38.83530147602343 
_cell_length_c                    35.542804926767104 
_cell_angle_alpha                 90.29240315089841 
_cell_angle_beta                  91.82009484815268 
_cell_angle_gamma                 89.93010544292494 
loop_ 
_atom_site_label 
_atom_site_type_symbol 
_atom_site_fract_x 
_atom_site_fract_y 
_atom_site_fract_z 
_atom_site_charge 
O1          O  0.05525712  0.47414959  0.50557902    -0.81000
C2          C  0.17774483  0.49092725  0.59264855     0.98400
O3          O  0.16388629  0.50097947  0.56211257    -0.70100
O4          O  0.12593387  0.49466091  0.50080907    -0.73700
Al5        Al  0.11605198  0.50771451  0.55111018     1.49000
C6          C  0.12866734  0.46575880  0.48455512     0.93600
O7          O  0.10195402  0.39428078  0.55207866    -0.79900
O8          O  0.07602601  0.42295434  0.61649328    -0.73500
Al9        Al  0.08149551  0.43796679  0.53295924     1.90100
O10         O  0.14193223  0.41150563  0.59289425    -0.72500
O11         O  0.09301075  0.48460967  0.63342515    -0.72400
O12         O  0.16046562  0.47423803  0.61595085    -0.78000
O13         O  0.08255086  0.02136619  0.59338397    -0.76200
O14         O  0.10526547  0.46520389  0.56469031    -1.12400
O15         O  0.07006811  0.00911494  0.52007117    -0.71600
C16         C  0.04994765  0.50570763  0.51289342     0.99200
C17         C  0.12777675  0.38758907  0.57398688     0.95600
Al18       Al  0.11696064  0.44979209  0.61066396     1.55600
O19         O  0.11603557  0.43857689  0.49748568    -0.76200
C20         C  0.08822817  0.01382264  0.62749443     0.99700
C21         C  0.04725984  0.42525585  0.59900445     0.94600
O22         O  0.04482369  0.43639974  0.56588477    -0.81500
O23         O  0.46965849  0.30621388  0.50318784    -0.81000
C24         C  0.35120584  0.29249183  0.58684535     0.98400
O25         O  0.36301807  0.28224084  0.55608179    -0.70100
O26         O  0.40021239  0.28445860  0.49539576    -0.73700
Al27       Al  0.41058847  0.27411048  0.54737479     1.49000
C28         C  0.39815471  0.31209729  0.47660967     0.93600
O29         O  0.42359448  0.38705833  0.54403569    -0.79900
O30         O  0.45283491  0.36198128  0.61033548    -0.73500
Al31       Al  0.44437638  0.34319279  0.52724269     1.90100
O32         O  0.38580285  0.37024620  0.58479415    -0.72500
O33         O  0.43867769  0.30037248  0.62856552    -0.72400
O34         O  0.37010241  0.30895203  0.61023525    -0.78000
O35         O  0.41814285  0.25536313  0.59819440    -0.76200
O36         O  0.42202730  0.31706296  0.55931655    -1.12400
O37         O  0.45701976  0.26079198  0.53632702    -0.71600
C38         C  0.47512541  0.27501505  0.51178678     0.99200
C39         C  0.39850004  0.39372442  0.56528295     0.95600
Al40       Al  0.41252668  0.33390349  0.60456218     1.55600
O41         O  0.40933184  0.34036903  0.48967264    -0.76200
C42         C  0.43170308  0.26893714  0.62769055     0.99700
C43         C  0.48109362  0.35785924  0.59434369     0.94600
O44         O  0.48214439  0.34653539  0.56125746    -0.81500
O45         O  0.23105883  0.17717196  0.64660182    -0.81000
C46         C  0.16277923  0.30378867  0.62210848     0.98400
O47         O  0.17975308  0.28688962  0.59844750    -0.70100
O48         O  0.24516939  0.27530805  0.61995512    -0.73700
Al49       Al  0.20893175  0.24613550  0.60323997     1.49000
C50         C  0.27113721  0.26344858  0.63776224     0.93600
O51         O  0.22688345  0.25037944  0.71487207    -0.79900
O52         O  0.14674165  0.19447913  0.67971089    -0.73500
Al53       Al  0.22838105  0.21474988  0.67959623     1.90100
O54         O  0.16985240  0.25380268  0.71576524    -0.72500
O55         O  0.13150981  0.23208617  0.61577963    -0.72400
O56         O  0.15611616  0.29044822  0.65347701    -0.78000
O57         O  0.17599056  0.21761053  0.58260267    -0.76200
O58         O  0.19711819  0.23478247  0.64954320    -1.12400
O59         O  0.23949315  0.20780536  0.59593065    -0.71600
C60         C  0.23934130  0.17927313  0.61277511     0.99200
C61         C  0.19962297  0.25883468  0.73087066     0.95600
Al62       Al  0.15444918  0.24205674  0.66493245     1.55600
O63         O  0.26822810  0.23755081  0.65899720    -0.76200
C64         C  0.14421590  0.22138061  0.58530243     0.99700
C65         C  0.16595191  0.17837807  0.70331778     0.94600
O66         O  0.19711648  0.18721946  0.70797823    -0.81500
O67         O  0.30844289  0.10976940  0.64716746    -0.81000
C68         C  0.36572542  0.47621260  0.61386653     0.98400
O69         O  0.34144825  0.99670907  0.59199548    -0.70100
O70         O  0.28019453  0.01435102  0.61855304    -0.73700
Al71       Al  0.31753757  0.03990616  0.59983621     1.49000
C72         C  0.25731190  0.02897983  0.63737139     0.93600
O73         O  0.31199029  0.03476452  0.71280689    -0.79900
O74         O  0.39243200  0.08272228  0.67261419    -0.73500
Al75       Al  0.31030619  0.07129485  0.67854208     1.90100
O76         O  0.36795551  0.02440297  0.70801433    -0.72500
O77         O  0.39710914  0.04615083  0.60851498    -0.72400
O78         O  0.37122418  0.98975315  0.64482910    -0.78000
O79         O  0.35130238  0.06457238  0.57687470    -0.76200
O80         O  0.33565191  0.04880404  0.64553758    -1.12400
O81         O  0.29096877  0.08180561  0.59610623    -0.71600
C82         C  0.29629007  0.10964756  0.61397348     0.99200
C83         C  0.33991104  0.02166999  0.72519042     0.95600
Al84       Al  0.37872597  0.03680691  0.65762123     1.55600
O85         O  0.26555115  0.05384675  0.65923999    -0.76200
C86         C  0.38317887  0.05953692  0.57937541     0.99700
C87         C  0.37845111  0.10063933  0.69775197     0.94600
O88         O  0.34759096  0.09459575  0.70597400    -0.81500
O89         O  0.30278407  0.41846310  0.89404841    -0.81000
C90         C  0.42402292  0.49310169  0.86783774     0.98400
O91         O  0.40823984  0.47323278  0.84507417    -0.70100
O92         O  0.40221457  0.41065022  0.87376902    -0.73700
Al93       Al  0.37045291  0.44177985  0.85205770     1.49000
C94         C  0.39163469  0.38565743  0.89272462     0.93600
O95         O  0.37197003  0.43812230  0.96722295    -0.79900
O96         O  0.31393016  0.00695186  0.91806994    -0.73500
Al97       Al  0.33860135  0.42937310  0.92906457     1.90100
O98         O  0.37482544  0.49445299  0.95950625    -0.72500
O99         O  0.35113875  0.01594310  0.85733987    -0.72400
O100        O  0.41076111  0.50134733  0.89853945    -0.78000
O101        O  0.33936286  0.47017184  0.82690679    -0.76200
O102        O  0.35757141  0.45789128  0.89663566    -1.12400
O103        O  0.33611166  0.40689247  0.84676372    -0.71600
C104        C  0.30772954  0.40446524  0.86256984     0.99200
C105        C  0.37999241  0.46774500  0.97918253     0.95600
Al106      Al  0.36150690  0.99992108  0.90808736     1.55600
O107        O  0.36600011  0.38923890  0.91398150    -0.76200
C108        C  0.34047361  0.00008280  0.82798176     0.99700
C109        C  0.29887237  0.49339118  0.94306273     0.94600
O110        O  0.30739249  0.46283924  0.95173631    -0.81500
O111        O  0.22587665  0.36912911  0.89144506    -0.81000
C112        C  0.10241479  0.29528658  0.86925639     0.98400
O113        O  0.11765007  0.31259813  0.84482228    -0.70100
O114        O  0.12651424  0.37811970  0.86510151    -0.73700
Al115      Al  0.15676801  0.34349780  0.84869986     1.49000
C116        C  0.13797119  0.40414440  0.88272760     0.93600
O117        O  0.15644618  0.35874001  0.96071141    -0.79900
O118        O  0.21429914  0.28185500  0.92546037    -0.73500
Al119      Al  0.19039477  0.36291470  0.92494801     1.90100
O120        O  0.15606386  0.30183025  0.96173260    -0.72500
O121        O  0.17476390  0.26694336  0.86248675    -0.72400
O122        O  0.11727919  0.28880147  0.90054838    -0.78000
O123        O  0.18593154  0.31197518  0.82793326    -0.76200
O124        O  0.17081198  0.33147421  0.89514830    -1.12400
O125        O  0.19261056  0.37647027  0.84084284    -0.71600
C126        C  0.22134666  0.37939597  0.85807581     0.99200
C127        C  0.15011460  0.33082049  0.97679802     0.95600
Al128      Al  0.16596995  0.28835256  0.91112597     1.55600
O129        O  0.16432884  0.40175488  0.90460001    -0.76200
C130        C  0.18487103  0.28002738  0.83209644     0.99700
C131        C  0.23066707  0.30098305  0.94892704     0.94600
O132        O  0.22133037  0.33201875  0.95285804    -0.81500
O133        O  0.07534333  0.10432480  0.75053671    -0.81000
C134        C  0.10890084  0.48652308  0.83228307     0.98400
O135        O  0.11427476  0.99955970  0.80266270    -0.70100
O136        O  0.10082374  0.03651081  0.74178486    -0.73700
Al137      Al  0.11723173  0.04780754  0.79198890     1.49000
C138        C  0.07093774  0.03216635  0.72678398     0.93600
O139        O  0.00367234  0.05467860  0.79991996    -0.79900
O140        O  0.03414100  0.08228258  0.86271396    -0.73500
Al141      Al  0.04383296  0.07717192  0.77887413     1.90100
O142        O  0.02720506  0.01599202  0.83749080    -0.72500
O143        O  0.09758759  0.07171827  0.87548230    -0.72400
O144        O  0.09130174  0.00364462  0.85794534    -0.78000
O145        O  0.14103882  0.05661377  0.84101577    -0.76200
O146        O  0.07505828  0.05595519  0.80804149    -1.12400
O147        O  0.12601799  0.09531248  0.77749691    -0.71600
C148        C  0.10681459  0.11221351  0.75456843     0.99200
C149        C  0.00102979  0.02838075  0.82071585     0.95600
Al150      Al  0.06364738  0.04423911  0.85438883     1.55600
O151        O  0.04389479  0.04225901  0.74227158    -0.76200
C152        C  0.12916762  0.06676763  0.87216223     0.99700
C153        C  0.03641014  0.11123824  0.84735965     0.94600
O154        O  0.04311438  0.11407179  0.81310598    -0.81500
O155        O  0.43685455  0.18158881  0.75903105    -0.81000
C156        C  0.41975085  0.30431139  0.84046890     0.98400
O157        O  0.41045892  0.29147620  0.80897327    -0.70100
O158        O  0.41611007  0.25137409  0.74795617    -0.73700
Al159      Al  0.40312600  0.24330656  0.79934580     1.49000
C160        C  0.44499091  0.25220263  0.73205828     0.93600
O161        O  0.01227242  0.23222469  0.80242004    -0.79900
O162        O  0.48823015  0.20407307  0.86989452    -0.73500
Al163      Al  0.47266721  0.20770325  0.78578900     1.90100
O164        O  0.99509664  0.27237268  0.84129428    -0.72500
O165        O  0.42639323  0.21990543  0.88331984    -0.72400
O166        O  0.43631840  0.28649868  0.86439233    -0.78000
O167        O  0.38225823  0.23722844  0.84814248    -0.76200
O168        O  0.44554280  0.23221420  0.81504383    -1.12400
O169        O  0.39005344  0.19652987  0.78765467    -0.71600
C170        C  0.40534559  0.17666026  0.76531803     0.99200
C171        C  0.01873110  0.25853668  0.82294224     0.95600
Al172      Al  0.46100492  0.24404649  0.86114485     1.55600
O173        O  0.47226475  0.24116152  0.74801768    -0.76200
C174        C  0.39461468  0.22453359  0.87851209     0.99700
C175        C  0.48360940  0.17499553  0.85486737     0.94600
O176        O  0.47367544  0.17193559  0.82100342    -0.81500
O177        O  0.30269581  0.20841098  0.00201920    -0.81000
C178        C  0.42399514  0.23623590  0.08561133     0.98400
O179        O  0.41025707  0.24368453  0.05389447    -0.70100
O180        O  0.37024348  0.23271464  0.99221939    -0.73700
Al181      Al  0.36159952  0.24833198  0.04258333     1.49000
C182        C  0.37324939  0.20303263  0.97758618     0.93600
O183        O  0.35345896  0.13507546  0.05235402    -0.79900
O184        O  0.32642380  0.16567849  0.11528936    -0.73500
Al185      Al  0.33063289  0.17580771  0.03075431     1.90100
O186        O  0.39235497  0.15664263  0.09193035    -0.72500
O187        O  0.33903991  0.22902161  0.12601077    -0.72400
O188        O  0.40677451  0.22102429  0.10998677    -0.78000
O189        O  0.35476254  0.27191814  0.09065544    -0.76200
O190        O  0.35281568  0.20622243  0.05970826    -1.12400
O191        O  0.31383111  0.25871081  0.02761921    -0.71600
C192        C  0.29578897  0.24013990  0.00499005     0.99200
C193        C  0.37964679  0.13121010  0.07432879     0.95600
Al194      Al  0.36520114  0.19433033  0.10667506     1.55600
O195        O  0.36486670  0.17611479  0.99464427    -0.76200
C196        C  0.34338452  0.26057899  0.12131145     0.99700
C197        C  0.29748498  0.16566410  0.09824331     0.94600
O198        O  0.29425110  0.17413478  0.06422087    -0.81500
O199        O  0.05223140  0.34952677  0.14115494    -0.81000
C200        C  0.11991184  0.22402832  0.11197392     0.98400
O201        O  0.10087720  0.24095166  0.08933969    -0.70100
O202        O  0.03797676  0.25084446  0.11622087    -0.73700
Al203      Al  0.07149530  0.28060068  0.09693028     1.49000
C204        C  0.01390531  0.26258444  0.13569364     0.93600
O205        O  0.06792734  0.27942382  0.21122532    -0.79900
O206        O  0.14258358  0.33224845  0.16877652    -0.73500
Al207      Al  0.06109304  0.31322454  0.17481282     1.90100
O208        O  0.12416278  0.27300218  0.20532127    -0.72500
O209        O  0.14943032  0.29538979  0.10520234    -0.72400
O210        O  0.12941286  0.23704484  0.14318020    -0.78000
O211        O  0.10178985  0.30962978  0.07383382    -0.76200
O212        O  0.08855608  0.29265018  0.14248965    -1.12400
O213        O  0.03840931  0.31700381  0.09228365    -0.71600
C214        C  0.03700924  0.34523599  0.10962122     0.99200
C215        C  0.09697793  0.26937573  0.22359008     0.95600
Al216      Al  0.13274552  0.28506533  0.15462165     1.55600
O217        O  0.01929113  0.28812450  0.15775014    -0.76200
C218        C  0.13409061  0.30777906  0.07633019     0.99700
C219        C  0.12720608  0.34982048  0.19325383     0.94600
O220        O  0.09610086  0.34271013  0.20007471    -0.81500
O221        O  0.22194510  0.05193257  0.00352009    -0.81000
C222        C  0.10277064  0.04003161  0.08811500     0.98400
O223        O  0.11457732  0.02879264  0.05767736    -0.70100
O224        O  0.15172293  0.03085793  0.99610893    -0.73700
Al225      Al  0.16242738  0.02108415  0.04838477     1.49000
C226        C  0.15087465  0.05807347  0.97639358     0.93600
O227        O  0.17698956  0.13409598  0.04244156    -0.79900
O228        O  0.20416652  0.11051556  0.10887600    -0.73500
Al229      Al  0.19705952  0.08944896  0.02682018     1.90100
O230        O  0.13757698  0.11822336  0.08176295    -0.72500
O231        O  0.18927142  0.04997354  0.12938396    -0.72400
O232        O  0.12141738  0.05811715  0.11012325    -0.78000
O233        O  0.17084882  0.00363453  0.09941836    -0.76200
O234        O  0.17388566  0.06425901  0.05918485    -1.12400
O235        O  0.20874954  0.00725358  0.03728595    -0.71600
C236        C  0.22698712  0.02081204  0.01250640     0.99200
C237        C  0.15151416  0.14140823  0.06290139     0.95600
Al238      Al  0.16380368  0.08259787  0.10360045     1.55600
O239        O  0.16247364  0.08641391  0.98890285    -0.76200
C240        C  0.18330553  0.01834193  0.12879427     0.99700
C241        C  0.23275523  0.10535511  0.09390817     0.94600
O242        O  0.23443193  0.09265715  0.06144972    -0.81500
O243        O  0.49238561  0.42780619  0.14838072    -0.81000
C244        C  0.41525391  0.05058995  0.12496289     0.98400
O245        O  0.43297490  0.03485783  0.10129699    -0.70100
O246        O  0.49771837  0.02631951  0.12638323    -0.73700
Al247      Al  0.46532338  0.49477963  0.10397448     1.49000
C248        C  0.02322666  0.01398403  0.14287543     0.93600
O249        O  0.47736978  0.49929038  0.21690533    -0.79900
O250        O  0.40246401  0.43936233  0.17750923    -0.73500
Al251      Al  0.48359288  0.46437550  0.18147110     1.90100
O252        O  0.42044019  0.99846011  0.21671042    -0.72500
O253        O  0.38883384  0.47538322  0.11303494    -0.72400
O254        O  0.40845346  0.03647011  0.15572942    -0.78000
O255        O  0.43515412  0.46396207  0.08109967    -0.76200
O256        O  0.45234962  0.48208077  0.14966515    -1.12400
O257        O  0.49981741  0.45997398  0.09853887    -0.71600
C258        C  0.50427482  0.43221959  0.11614688     0.99200
C259        C  0.44953914  0.00255652  0.23354115     0.95600
Al260      Al  0.40859107  0.48685913  0.16293415     1.55600
O261        O  0.02283941  0.48795456  0.16135700    -0.76200
C262        C  0.40298633  0.46525492  0.08315738     0.99700
C263        C  0.42120963  0.42419366  0.20216472     0.94600
O264        O  0.45231041  0.43367717  0.20745182    -0.81500
O265        O  0.47726247  0.11558792  0.39290815    -0.81000
C266        C  0.35167164  0.04606024  0.36951462     0.98400
O267        O  0.36866379  0.06156063  0.34515163    -0.70100
O268        O  0.37884427  0.12654711  0.36498402    -0.73700
Al269      Al  0.40838730  0.09108524  0.34969875     1.49000
C270        C  0.39044877  0.15239210  0.38280512     0.93600
O271        O  0.40768683  0.10757793  0.46239632    -0.79900
O272        O  0.46175600  0.02803481  0.42806178    -0.73500
Al273      Al  0.44149830  0.11037621  0.42624886     1.90100
O274        O  0.40447196  0.05088150  0.46370436    -0.72500
O275        O  0.42208296  0.01430080  0.36470571    -0.72400
O276        O  0.36521811  0.03970239  0.40159491    -0.78000
O277        O  0.43721011  0.05819540  0.33029662    -0.76200
O278        O  0.42107030  0.07931926  0.39666062    -1.12400
O279        O  0.44471536  0.12318183  0.34199533    -0.71600
C280        C  0.47309460  0.12624839  0.35969250     0.99200
C281        C  0.40036503  0.08013963  0.47887994     0.95600
Al282      Al  0.41390461  0.03667849  0.41309540     1.55600
O283        O  0.41622048  0.14963836  0.40550867    -0.76200
C284        C  0.43368694  0.02637997  0.33446604     0.99700
C285        C  0.47960032  0.04717849  0.45021962     0.94600
O286        O  0.47161811  0.07864341  0.45372051    -0.81500
O287        O  0.05051315  0.17211528  0.39377785    -0.81000
C288        C  0.17502143  0.24100748  0.36793287     0.98400
O289        O  0.15838643  0.22102269  0.34619819    -0.70100
O290        O  0.15026371  0.16044834  0.37832432    -0.73700
Al291      Al  0.11999737  0.19134378  0.35392132     1.49000
C292        C  0.13816912  0.13636906  0.39756221     0.93600
O293        O  0.11711600  0.19234300  0.46957296    -0.79900
O294        O  0.06583214  0.26378141  0.41629260    -0.73500
Al295      Al  0.08534410  0.18307694  0.42995173     1.90100
O296        O  0.12373807  0.24791889  0.45876555    -0.72500
O297        O  0.10348367  0.26856209  0.35506010    -0.72400
O298        O  0.16198804  0.25118956  0.39817543    -0.78000
O299        O  0.09044585  0.21960405  0.32649909    -0.76200
O300        O  0.10649848  0.20971099  0.39726959    -1.12400
O301        O  0.08524602  0.15718385  0.34900286    -0.71600
C302        C  0.05619349  0.15656938  0.36335458     0.99200
C303        C  0.12570851  0.22218590  0.48041866     0.95600
Al304      Al  0.11323587  0.25420929  0.40639290     1.55600
O305        O  0.11207356  0.14147533  0.41783004    -0.76200
C306        C  0.09238635  0.25184528  0.32645922     0.99700
C307        C  0.04781240  0.24894431  0.44035816     0.94600
O308        O  0.05456348  0.21813618  0.44950810    -0.81500
O309        O  0.32713571  0.35485043  0.25236121    -0.81000
C310        C  0.36161773  0.23340457  0.32981250     0.98400
O311        O  0.36853405  0.24761010  0.29908053    -0.70100
O312        O  0.35606340  0.28711885  0.23876683    -0.73700
Al313      Al  0.36972238  0.29653122  0.29067237     1.49000
C314        C  0.32677747  0.28370695  0.22208318     0.93600
O315        O  0.25575395  0.29666874  0.29323797    -0.79900
O316        O  0.28007285  0.32086316  0.35919348    -0.73500
Al317      Al  0.29530491  0.32360760  0.27645530     1.90100
O318        O  0.28006717  0.25704310  0.32927346    -0.72500
O319        O  0.34468178  0.31612713  0.37416574    -0.72400
O320        O  0.34444202  0.24920855  0.35372834    -0.78000
O321        O  0.39058526  0.30517419  0.34122336    -0.76200
O322        O  0.32644815  0.30225024  0.30529361    -1.12400
O323        O  0.37784835  0.34434191  0.27847681    -0.71600
C324        C  0.35895789  0.36202415  0.25614953     0.99200
C325        C  0.25356423  0.26950102  0.31291394     0.95600
Al326      Al  0.31374391  0.28704176  0.35008373     1.55600
O327        O  0.29914089  0.29184659  0.23742766    -0.76200
C328        C  0.37682290  0.31438017  0.37181555     0.99700
C329        C  0.27700295  0.35025639  0.34532513     0.94600
O330        O  0.28902902  0.35750598  0.31369780    -0.81500
O331        O  0.18583454  0.43032057  0.25963401    -0.81000
C332        C  0.16250791  0.05350778  0.34561289     0.98400
O333        O  0.15152350  0.03949182  0.31542918    -0.70100
O334        O  0.15586980  0.00179501  0.25357777    -0.70500
Al335      Al  0.14817015  0.48883327  0.30367789     1.49000
C336        C  0.18214065  0.00411050  0.23346429     0.93600
O337        O  0.26156951  0.48826931  0.29811130    -0.79900
O338        O  0.24440632  0.46187617  0.36521878    -0.73500
Al339      Al  0.22021101  0.46154563  0.28294135     1.90100
O340        O  0.24376601  0.02802808  0.33795816    -0.72500
O341        O  0.18145233  0.46736074  0.38494897    -0.72400
O342        O  0.18281160  0.03758144  0.36755972    -0.78000
O343        O  0.13283724  0.47809155  0.35347041    -0.76200
O344        O  0.19272544  0.48254638  0.31503086    -1.12400
O345        O  0.13906490  0.44138364  0.29009564    -0.71600
C346        C  0.15471752  0.42329912  0.26631389     0.99200
C347        C  0.26772660  0.01563895  0.31888783     0.95600
Al348      Al  0.21039296  0.49643682  0.35981057     1.55600
O349        O  0.21165546  0.49347106  0.24479186    -0.76200
C350        C  0.14905248  0.46763855  0.38274546     0.99700
C351        C  0.24599600  0.43310214  0.34944271     0.94600
O352        O  0.23068171  0.42706959  0.31824632    -0.81500
C353        C  0.25656738  0.37525676  0.36450871    -0.15600
C354        C  0.26816811  0.40716896  0.36576555    -0.30800
H355        H  0.22899907  0.37015231  0.36504250     0.13400
H356        H  0.29574274  0.41229399  0.36572661     0.14000
C357        C  0.20978955  0.25262230  0.35754213    -0.15600
C358        C  0.21939190  0.25518447  0.32137597    -0.30800
H359        H  0.22744299  0.26115069  0.38012303     0.13400
H360        H  0.20088477  0.25022984  0.29836053     0.14000
C361        C  0.15101081  0.10108949  0.39096201    -0.15600
C362        C  0.15179242  0.08892956  0.35521993    -0.30800
H363        H  0.15655095  0.08427041  0.41471625     0.13400
H364        H  0.14277329  0.10523452  0.33214574     0.14000
C365        C  0.02942291  0.13543663  0.34624418    -0.15600
C366        C  0.50112986  0.14468404  0.34321062    -0.30800
H367        H  0.03308434  0.10772253  0.34826305     0.13400
H368        H  0.49719308  0.17198693  0.33796076     0.14000
C369        C  0.37377004  0.19820989  0.33861809    -0.15600
C370        C  0.37602057  0.18662265  0.37440837    -0.30800
H371        H  0.38235181  0.18199208  0.31571015     0.13400
H372        H  0.37062852  0.20371926  0.39779374     0.14000
C373        C  0.31564807  0.03525606  0.36051179    -0.15600
C374        C  0.30317837  0.02930496  0.32502605    -0.30800
H375        H  0.29926755  0.03017210  0.38409307     0.13400
H376        H  0.31786113  0.53265847  0.30203022     0.14000
C377        C  0.40735247  0.39567116  0.22625333    -0.15600
C378        C  0.37330658  0.39071462  0.23264816    -0.30800
H379        H  0.42610832  0.37925180  0.24075335     0.13400
H380        H  0.35467261  0.40739624  0.21830515     0.14000
C381        C  0.45139876  0.01930133  0.27011796    -0.15600
C382        C  0.43961137  0.00453994  0.30138609    -0.30800
H383        H  0.46152004  0.04538402  0.27068096     0.13400
H384        H  0.43053637  0.97807784  0.30087148     0.14000
C385        C  0.18755230  0.00064204  0.16487855    -0.15600
C386        C  0.17786641  0.01793331  0.19578907    -0.30800
H387        H  0.19722774  0.97440224  0.16640819     0.13400
H388        H  0.16482292  0.04266921  0.19320773     0.14000
C389        C  0.05745794  0.02836795  0.13448290    -0.15600
C390        C  0.06711010  0.03124624  0.09839062    -0.30800
H391        H  0.07634958  0.03196142  0.15743772     0.13400
H392        H  0.04905173  0.02384161  0.07571955     0.14000
C393        C  0.13550654  0.39451408  0.24572780    -0.15600
C394        C  0.14662877  0.37822254  0.21426368    -0.30800
H395        H  0.11040522  0.38755569  0.25607771     0.13400
H396        H  0.17169630  0.38524368  0.20387201     0.14000
C397        C  0.09964706  0.25370988  0.26025645    -0.15600
C398        C  0.08617245  0.26873047  0.29051921    -0.30800
H399        H  0.11564694  0.23078107  0.26312779     0.13400
H400        H  0.07373957  0.29378634  0.28892242     0.14000
C401        C  0.01463617  0.37235333  0.09529650    -0.15600
C402        C  0.02595443  0.40455698  0.09732789    -0.30800
H403        H  0.98709816  0.36701657  0.09375615     0.13400
H404        H  0.05351274  0.40980550  0.09880877     0.14000
C405        C  0.13058373  0.18837148  0.10279703    -0.15600
C406        C  0.13968116  0.17752051  0.06819473    -0.30800
H407        H  0.13318354  0.17069359  0.12633385     0.13400
H408        H  0.14082973  0.19561758  0.04507913     0.14000
C409        C  0.33837319  0.28263312  0.15441380    -0.15600
C410        C  0.32429846  0.26841980  0.18481745    -0.30800
H411        H  0.34994552  0.30808945  0.15588621     0.13400
H412        H  0.31118317  0.24372580  0.18287408     0.14000
C413        C  0.26774140  0.15134919  0.11586879    -0.15600
C414        C  0.26438882  0.11748438  0.11202897    -0.30800
H415        H  0.24472113  0.16742792  0.11575817     0.13400
H416        H  0.28729838  0.10191058  0.10753242     0.14000
C417        C  0.46048858  0.24566343  0.09442564    -0.15600
C418        C  0.47347186  0.24938103  0.13005460    -0.30800
H419        H  0.47664209  0.25181904  0.07097482     0.13400
H420        H  0.45672047  0.24662516  0.15374005     0.14000
C421        C  0.39423603  0.09644839  0.08125619    -0.15600
C422        C  0.40236268  0.08577154  0.11658486    -0.30800
H423        H  0.39559975  0.07851233  0.05777598     0.13400
H424        H  0.39752371  0.10276085  0.14025120     0.14000
C425        C  0.37328783  0.21809013  0.91101496    -0.15600
C426        C  0.38676594  0.19993320  0.94008884    -0.30800
H427        H  0.34916203  0.23207388  0.91359495     0.13400
H428        H  0.40986155  0.18438685  0.93704716     0.14000
C429        C  0.14996396  0.06871487  0.90744517    -0.15600
C430        C  0.13521830  0.05634509  0.93863078    -0.30800
H431        H  0.17601397  0.07901795  0.90821113     0.13400
H432        H  0.11068537  0.04281306  0.93621042     0.14000
C433        C  0.99465622  0.14769235  0.87173659    -0.15600
C434        C  0.02803483  0.14190473  0.86809433    -0.30800
H435        H  0.47584847  0.12295196  0.87267613     0.13400
H436        H  0.04523488  0.16370010  0.86432551     0.14000
C437        C  0.26650453  0.25413841  0.98052930    -0.15600
C438        C  0.26043265  0.28787455  0.97333652    -0.30800
H439        H  0.24982890  0.23526060  0.96645617     0.13400
H440        H  0.27681628  0.30693834  0.98749915     0.14000
C441        C  0.13623139  0.33194550  0.01400701    -0.15600
C442        C  0.15306526  0.31680043  0.04300793    -0.30800
H443        H  0.11080570  0.34328226  0.01694422     0.13400
H444        H  0.17910857  0.30694641  0.04004873     0.14000
C445        C  0.06663412  0.28290588  0.86180723    -0.15600
C446        C  0.05450336  0.27198688  0.82768522    -0.30800
H447        H  0.05021341  0.28077826  0.88588056     0.13400
H448        H  0.07163664  0.27058681  0.80416463     0.14000
C449        C  0.12269403  0.43826456  0.87530860    -0.15600
C450        C  0.11982277  0.45064654  0.83989080    -0.30800
H451        H  0.11804617  0.45502878  0.89918941     0.13400
H452        H  0.12777780  0.43479970  0.81640659     0.14000
C453        C  0.26868014  0.01008981  0.96132973    -0.15600
C454        C  0.25387100  0.99981668  0.99341830    -0.30800
H455        H  0.26101031  0.03468947  0.94925378     0.13400
H456        H  0.26122146  0.97522516  0.00571084     0.14000
C457        C  0.39645396  0.47169696  0.01623691    -0.15600
C458        C  0.38323321  0.45900924  0.04793111    -0.30800
H459        H  0.41949113  0.48767832  0.01776856     0.13400
H460        H  0.35827355  0.44632479  0.04775310     0.14000
C461        C  0.24965831  0.39681367  0.84069684    -0.15600
C462        C  0.28085616  0.38307667  0.84582634    -0.30800
H463        H  0.24674060  0.42432467  0.83602554     0.13400
H464        H  0.28350423  0.35556362  0.85073315     0.14000
C465        C  0.45820639  0.50718240  0.85921106    -0.15600
C466        C  0.46722778  0.01084107  0.82577885    -0.30800
H467        H  0.47311946  0.51715786  0.88332990     0.13400
H468        H  0.44841946  0.00910713  0.80251644     0.14000
C469        C  0.41045513  0.34021058  0.84987401    -0.15600
C470        C  0.40609477  0.35107486  0.88567765    -0.30800
H471        H  0.40412684  0.35743317  0.82664134     0.13400
H472        H  0.40871528  0.33308105  0.90889284     0.14000
C473        C  0.38571823  0.14811123  0.74586352    -0.15600
C474        C  0.39862817  0.12845237  0.71789592    -0.30800
H475        H  0.35933623  0.14387400  0.75413827     0.13400
H476        H  0.42488649  0.13289277  0.70932347     0.14000
C477        C  0.40274160  0.06620993  0.54563944    -0.15600
C478        C  0.38700340  0.08229147  0.51641326    -0.30800
H479        H  0.42781293  0.05407968  0.54264654     0.13400
H480        H  0.36276034  0.09594686  0.51955239     0.14000
C481        C  0.34053734  0.00316015  0.76046721    -0.15600
C482        C  0.33247525  0.01851011  0.79299031    -0.30800
H483        H  0.35257197  0.97785927  0.76042948     0.13400
H484        H  0.32496118  0.54643293  0.79162756     0.14000
C485        C  0.11972860  0.14130431  0.73102162    -0.15600
C486        C  0.15327946  0.14919603  0.72689982    -0.30800
H487        H  0.10045551  0.15620745  0.71532068     0.13400
H488        H  0.17259407  0.13441164  0.74267236     0.14000
C489        C  0.12416210  0.21683298  0.54989761    -0.15600
C490        C  0.13953259  0.22754996  0.51840059    -0.30800
H491        H  0.09866514  0.20527750  0.54912029     0.13400
H492        H  0.16336876  0.24227774  0.52051884     0.14000
C493        C  0.20263034  0.27489420  0.76766422    -0.15600
C494        C  0.19188298  0.25903546  0.79877985    -0.30800
H495        H  0.21176220  0.30133392  0.76852047     0.13400
H496        H  0.18379939  0.23225088  0.79778681     0.14000
C497        C  0.25176466  0.14826977  0.59478185    -0.15600
C498        C  0.28548015  0.14246567  0.59825284    -0.30800
H499        H  0.23417893  0.12644999  0.59385508     0.13400
H500        H  0.30264716  0.16414979  0.60407328     0.14000
C501        C  0.00457727  0.25853987  0.49077827    -0.15600
C502        C  0.01973295  0.26881754  0.45886087    -0.30800
H503        H  0.50911592  0.22955018  0.50409403     0.13400
H504        H  0.01272663  0.29366904  0.44696241     0.14000
C505        C  0.38133854  0.31079196  0.43949094    -0.15600
C506        C  0.39679931  0.31953083  0.40733792    -0.30800
H507        H  0.35589194  0.29901678  0.43844137     0.13400
H508        H  0.42357830  0.32771798  0.40743165     0.14000
C509        C  0.43622026  0.24985154  0.66326080    -0.15600
C510        C  0.44699658  0.26693323  0.69464436    -0.30800
H511        H  0.42731004  0.22340007  0.66486651     0.13400
H512        H  0.45610820  0.29332399  0.69339739     0.14000
C513        C  0.30564230  0.27770386  0.63109179    -0.15600
C514        C  0.31525671  0.28419323  0.59573068    -0.30800
H515        H  0.32463857  0.27830735  0.65419213     0.13400
H516        H  0.29708353  0.27972118  0.57232931     0.14000
C517        C  0.38558529  0.42958419  0.57027745    -0.15600
C518        C  0.37456104  0.44009136  0.60427598    -0.30800
H519        H  0.38832440  0.44809801  0.54776977     0.13400
H520        H  0.37560992  0.42205003  0.62756614     0.14000
C521        C  0.01487957  0.00302208  0.48641709    -0.15600
C522        C  0.01142101  0.03597582  0.47408091    -0.30800
H523        H  0.01743031  0.55233928  0.50272952     0.13400
H524        H  0.03069553  0.05471847  0.48333648     0.14000
C525        C  0.07228468  0.03216397  0.65853201    -0.15600
C526        C  0.06835164  0.01475179  0.69071524    -0.30800
H527        H  0.10297617  0.56210467  0.66587501     0.13400
H528        H  0.07196048  0.98699187  0.69142862     0.14000
C529        C  0.13069149  0.45923813  0.41673913    -0.15600
C530        C  0.14714768  0.46439446  0.45003043    -0.30800
H531        H  0.10316322  0.45385652  0.41509901     0.13400
H532        H  0.17367146  0.47347717  0.45162238     0.14000
C533        C  0.51319844  0.36900133  0.61238681    -0.15600
C534        C  0.01664267  0.41024558  0.61431521    -0.30800
H535        H  0.53552944  0.35263518  0.60781908     0.13400
H536        H  0.99347931  0.42611524  0.61385309     0.14000
C537        C  0.21463030  0.49897074  0.60039425    -0.15600
C538        C  0.22033142  0.01941013  0.63116378    -0.30800
H539        H  0.23135378  0.49866401  0.57644417     0.13400
H540        H  0.20088886  0.03552759  0.64384128     0.14000
C541        C  0.15114727  0.33982143  0.61384878    -0.15600
C542        C  0.14049516  0.35140698  0.57935404    -0.30800
H543        H  0.14930536  0.35710598  0.63783373     0.13400
H544        H  0.13882473  0.33359964  0.55572606     0.14000
O545        O  0.04547926  0.95851911  0.52007722    -0.81000
C546        C  0.17342722  0.98536218  0.59927443     0.98400
O547        O  0.15375848  0.00814383  0.58422394    -0.70100
O548        O  0.13798382  0.99055986  0.51337781    -0.73700
Al549      Al  0.11046431  0.00376030  0.55383474     1.49000
C550        C  0.13116501  0.96817828  0.48837222     0.93600
O551        O  0.12016317  0.89524857  0.54338292    -0.79900
O552        O  0.06782582  0.93795503  0.62465536    -0.73500
Al553      Al  0.08422540  0.92977084  0.53466698     1.90100
O554        O  0.12282236  0.90004807  0.60433259    -0.72500
O555        O  0.10899769  0.99022016  0.63635362    -0.72400
O556        O  0.16197562  0.95568483  0.60626635    -0.78000
O557        O  0.10895335  0.52867984  0.59982255    -0.76200
O558        O  0.10293318  0.96015855  0.56685148    -1.12400
O559        O  0.06920907  0.52055966  0.53734984    -0.71600
C560        C  0.04498444  0.98981392  0.51037655     0.99200
C561        C  0.12879666  0.88300448  0.57524000     0.95600
Al562      Al  0.11443754  0.94713612  0.61371489     1.55600
O563        O  0.10901435  0.94491309  0.49279533    -0.76200
C564        C  0.09653224  0.51638269  0.62936033     0.99700
C565        C  0.04856977  0.91845545  0.60483803     0.94600
O566        O  0.05563409  0.91024337  0.57134600    -0.81500
O567        O  0.46897322  0.81215344  0.50236555    -0.81000
C568        C  0.35106232  0.79490974  0.58703116     0.98400
O569        O  0.36328034  0.78475418  0.55646068    -0.70100
O570        O  0.39974989  0.78867826  0.49551916    -0.73700
Al571      Al  0.41108313  0.77864013  0.54740724     1.49000
C572        C  0.39672735  0.81620054  0.47660171     0.93600
O573        O  0.42111159  0.89199724  0.54330920    -0.79900
O574        O  0.45032615  0.86829386  0.60962628    -0.73500
Al575      Al  0.44276636  0.84856393  0.52666930     1.90100
O576        O  0.38300642  0.87390766  0.58297634    -0.72500
O577        O  0.43732050  0.80643978  0.62935415    -0.72400
O578        O  0.36910703  0.81280327  0.60985854    -0.78000
O579        O  0.42007778  0.76046499  0.59813420    -0.76200
O580        O  0.42109946  0.82192876  0.55901383    -1.12400
O581        O  0.45770123  0.76681489  0.53608645    -0.71600
C582        C  0.47511146  0.78109620  0.51107087     0.99200
C583        C  0.39549789  0.89786395  0.56404981     0.95600
Al584      Al  0.41067718  0.83893158  0.60398400     1.55600
O585        O  0.40769049  0.84475892  0.48915898    -0.76200
C586        C  0.43267210  0.77454070  0.62784615     0.99700
C587        C  0.47879835  0.86403101  0.59404559     0.94600
O588        O  0.48020023  0.85285924  0.56087515    -0.81500
O589        O  0.23517616  0.67576404  0.65073037    -0.81000
C590        C  0.16379113  0.79961552  0.62319215     0.98400
O591        O  0.18109108  0.78296168  0.59960225    -0.70100
O592        O  0.24651211  0.77314775  0.62075152    -0.73700
Al593      Al  0.21102233  0.74287899  0.60503417     1.49000
C594        C  0.27272158  0.76271207  0.63914427     0.93600
O595        O  0.22822924  0.75040633  0.71734056    -0.79900
O596        O  0.15008715  0.69173638  0.68186072    -0.73500
Al597      Al  0.23116598  0.71399218  0.68265006     1.90100
O598        O  0.17117039  0.75153920  0.71779944    -0.72500
O599        O  0.13399769  0.72811278  0.61774751    -0.72400
O600        O  0.15763170  0.78665044  0.65481375    -0.78000
O601        O  0.17848106  0.71330647  0.58486674    -0.76200
O602        O  0.19952486  0.73236422  0.65175013    -1.12400
O603        O  0.24233503  0.70493536  0.59878945    -0.71600
C604        C  0.24247931  0.67685889  0.61654748     0.99200
C605        C  0.20054910  0.75801826  0.73312731     0.95600
Al606      Al  0.15665897  0.73889861  0.66680912     1.55600
O607        O  0.27047571  0.73756478  0.66157108    -0.76200
C608        C  0.14668058  0.71709683  0.58741472     0.99700
C609        C  0.16923886  0.67676843  0.70632082     0.94600
O610        O  0.20025260  0.68614015  0.71126485    -0.81500
O611        O  0.31108483  0.60735486  0.64503545    -0.81000
C612        C  0.35999788  0.97816399  0.61360512     0.98400
O613        O  0.34756669  0.49453093  0.59158600    -0.70100
O614        O  0.28597368  0.51100946  0.61765443    -0.73700
Al615      Al  0.32243500  0.53733399  0.59904442     1.49000
C616        C  0.26308526  0.52412227  0.63767149     0.93600
O617        O  0.31714152  0.53417570  0.71237346    -0.79900
O618        O  0.39666911  0.58201768  0.67112080    -0.73500
Al619      Al  0.31442856  0.56953976  0.67724288     1.90100
O620        O  0.37307768  0.52410794  0.70760675    -0.72500
O621        O  0.40168079  0.54458767  0.60754616    -0.72400
O622        O  0.37639569  0.48832753  0.64508693    -0.78000
O623        O  0.35547413  0.56289926  0.57658883    -0.76200
O624        O  0.34019731  0.54702222  0.64470903    -1.12400
O625        O  0.29442068  0.57829609  0.59456082    -0.71600
C626        C  0.29872272  0.60649178  0.61198829     0.99200
C627        C  0.34516969  0.52175596  0.72503212     0.95600
Al628      Al  0.38347802  0.53573359  0.65695131     1.55600
O629        O  0.27035188  0.54960113  0.65911604    -0.76200
C630        C  0.38736529  0.55806699  0.57866123     0.99700
C631        C  0.38237820  0.60044006  0.69562905     0.94600
O632        O  0.35137500  0.59456552  0.70356287    -0.81500
O633        O  0.30151802  0.91662270  0.89411230    -0.81000
C634        C  0.42362431  0.98997463  0.86979576     0.98400
O635        O  0.40793478  0.97007958  0.84701470    -0.70100
O636        O  0.40105503  0.90777352  0.87557667    -0.73700
Al637      Al  0.36991664  0.93913603  0.85306069     1.49000
C638        C  0.39015358  0.88288134  0.89444309     0.93600
O639        O  0.36999417  0.93603808  0.96825404    -0.79900
O640        O  0.31530194  0.50918893  0.91841170    -0.73500
Al641      Al  0.33695276  0.92721755  0.92961041     1.90100
O642        O  0.37288066  0.99235130  0.96020066    -0.72500
O643        O  0.35180305  0.51837754  0.85695927    -0.72400
O644        O  0.40993750  0.99896403  0.90001028    -0.78000
O645        O  0.33975603  0.96781034  0.82669819    -0.76200
O646        O  0.35643261  0.95553954  0.89729736    -1.12400
O647        O  0.33516852  0.90468827  0.84719332    -0.71600
C648        C  0.30639183  0.90317800  0.86232850     0.99200
C649        C  0.37793799  0.96575764  0.98007202     0.95600
Al650      Al  0.36268236  0.50222668  0.90754920     1.55600
O651        O  0.36417717  0.88669499  0.91514599    -0.76200
C652        C  0.34094655  0.50239589  0.82776316     0.99700
C653        C  0.29719552  0.99128022  0.94256246     0.94600
O654        O  0.30568604  0.96084464  0.95166130    -0.81500
O655        O  0.22512120  0.87117762  0.89314026    -0.81000
C656        C  0.10222397  0.79555815  0.87248818     0.98400
O657        O  0.11690249  0.81331725  0.84805700    -0.70100
O658        O  0.12532642  0.87886859  0.86859287    -0.73700
Al659      Al  0.15568264  0.84457448  0.85146439     1.49000
C660        C  0.13673639  0.90511377  0.88586786     0.93600
O661        O  0.15677311  0.86030923  0.96363172    -0.79900
O662        O  0.21480550  0.78379149  0.92836052    -0.73500
Al663      Al  0.19017731  0.86462917  0.92728471     1.90100
O664        O  0.15630025  0.80339414  0.96463571    -0.72500
O665        O  0.17537910  0.76828673  0.86529766    -0.72400
O666        O  0.11747711  0.78929378  0.90363061    -0.78000
O667        O  0.18471675  0.81317948  0.82975233    -0.76200
O668        O  0.17055919  0.83280759  0.89779512    -1.12400
O669        O  0.19102248  0.87786827  0.84302289    -0.71600
C670        C  0.21993319  0.88123456  0.85976984     0.99200
C671        C  0.15043298  0.83240424  0.97973707     0.95600
Al672      Al  0.16631751  0.78972199  0.91401856     1.55600
O673        O  0.16347816  0.90312653  0.90719649    -0.76200
C674        C  0.18463740  0.78123725  0.83443198     0.99700
C675        C  0.23130345  0.80321237  0.95143073     0.94600
O676        O  0.22178941  0.83422665  0.95505818    -0.81500
O677        O  0.07707776  0.60809340  0.75619930    -0.81000
C678        C  0.10701671  0.98636156  0.83382203     0.98400
O679        O  0.11587706  0.50086092  0.80160239    -0.70100
O680        O  0.10287386  0.54167415  0.74268215    -0.73700
Al681      Al  0.11891102  0.54968879  0.79382614     1.49000
C682        C  0.07301385  0.53836905  0.72730180     0.93600
O683        O  0.00535421  0.55565744  0.80180676    -0.79900
O684        O  0.03535167  0.58035563  0.86650596    -0.73500
Al685      Al  0.04545746  0.57944183  0.78253988     1.90100
O686        O  0.02868070  0.51536001  0.83745009    -0.72500
O687        O  0.09893163  0.56995887  0.87804031    -0.72400
O688        O  0.09313187  0.50280700  0.85714831    -0.78000
O689        O  0.14256586  0.55628200  0.84314699    -0.76200
O690        O  0.07662901  0.55700835  0.81033722    -1.12400
O691        O  0.12774917  0.59750673  0.78252344    -0.71600
C692        C  0.10873041  0.61520757  0.76028726     0.99200
C693        C  0.00260179  0.52835609  0.82095872     0.95600
Al694      Al  0.06517189  0.54310893  0.85585005     1.55600
O695        O  0.04595129  0.54626515  0.74410324    -0.76200
C696        C  0.13062239  0.56593575  0.87439865     0.99700
C697        C  0.03679019  0.61002801  0.85275012     0.94600
O698        O  0.04413620  0.61466280  0.81890444    -0.81500
O699        O  0.44060634  0.68254316  0.75668718    -0.81000
C700        C  0.42132322  0.80217811  0.84265821     0.98400
O701        O  0.41247481  0.79006364  0.81070846    -0.70100
O702        O  0.41736265  0.75221862  0.74844847    -0.73700
Al703      Al  0.40584876  0.74219481  0.79969270     1.49000
C704        C  0.44572618  0.75493658  0.73190744     0.93600
O705        O  0.01279270  0.73105339  0.80516341    -0.79900
O706        O  0.49311027  0.70243088  0.86771297    -0.73500
Al707      Al  0.47630247  0.70944183  0.78336835     1.90100
O708        O  0.99523816  0.77041309  0.84481594    -0.72500
O709        O  0.43019299  0.71568886  0.88208371    -0.72400
O710        O  0.43797906  0.78390025  0.86621101    -0.78000
O711        O  0.38577144  0.73460546  0.84856364    -0.76200
O712        O  0.44876602  0.73166771  0.81429824    -1.12400
O713        O  0.39385698  0.69548916  0.78670148    -0.71600
C714        C  0.40929876  0.67657148  0.76351146     0.99200
C715        C  0.01901604  0.75713092  0.82621805     0.95600
Al716      Al  0.46414060  0.74200865  0.86092622     1.55600
O717        O  0.47367302  0.74413564  0.74661992    -0.76200
C718        C  0.39845506  0.72137685  0.87846633     0.99700
C719        C  0.48966006  0.67396640  0.85094990     0.94600
O720        O  0.47994760  0.67239594  0.81690380    -0.81500
O721        O  0.30490772  0.71106345  0.00317120    -0.81000
C722        C  0.42799594  0.73765662  0.08645959     0.98400
O723        O  0.41299496  0.74719450  0.05615232    -0.70100
O724        O  0.37416751  0.73490875  0.99414122    -0.73700
Al725      Al  0.36424778  0.75037146  0.04438026     1.49000
C726        C  0.37666605  0.70524237  0.97917278     0.93600
O727        O  0.35413761  0.63629475  0.05168056    -0.79900
O728        O  0.32989768  0.66668108  0.11583923    -0.73500
Al729      Al  0.33254073  0.67818229  0.03149350     1.90100
O730        O  0.39517881  0.65599279  0.08951345    -0.72500
O731        O  0.34624832  0.72893427  0.12938469    -0.72400
O732        O  0.41220561  0.71952373  0.10958217    -0.78000
O733        O  0.35582601  0.77286161  0.09246537    -0.76200
O734        O  0.35589054  0.70781811  0.06072776    -1.12400
O735        O  0.31651675  0.76096958  0.02875965    -0.71600
C736        C  0.29814965  0.74271440  0.00625300     0.99200
C737        C  0.38096261  0.63117407  0.07223747     0.95600
Al738      Al  0.36978447  0.69415862  0.10685740     1.55600
O739        O  0.36632857  0.67837771  0.99503864    -0.76200
C740        C  0.34648878  0.76067086  0.12360322     0.99700
C741        C  0.30054342  0.66771127  0.09949088     0.94600
O742        O  0.29677716  0.67700886  0.06574838    -0.81500
O743        O  0.05187809  0.84991854  0.14456216    -0.81000
C744        C  0.12146475  0.72557704  0.11499832     0.98400
O745        O  0.10201289  0.74213546  0.09240124    -0.70100
O746        O  0.03877158  0.75132475  0.11874349    -0.73700
Al747      Al  0.07209119  0.78151178  0.09981478     1.49000
C748        C  0.01443677  0.76276677  0.13801366     0.93600
O749        O  0.06823043  0.77956775  0.21412680    -0.79900
O750        O  0.14203061  0.83403657  0.17175354    -0.73500
Al751      Al  0.06105014  0.81357069  0.17791878     1.90100
O752        O  0.12462394  0.77437738  0.20858038    -0.72500
O753        O  0.14984519  0.79744655  0.10839590    -0.72400
O754        O  0.13076296  0.73874745  0.14620003    -0.78000
O755        O  0.10212637  0.81092414  0.07681353    -0.76200
O756        O  0.08886155  0.79358445  0.14550442    -1.12400
O757        O  0.03861627  0.81771802  0.09524437    -0.71600
C758        C  0.03677650  0.84575913  0.11295141     0.99200
C759        C  0.09740360  0.77001161  0.22667335     0.95600
Al760      Al  0.13314773  0.78674668  0.15774547     1.55600
O761        O  0.01952323  0.78811785  0.16042246    -0.76200
C762        C  0.13444075  0.80959736  0.07944162     0.99700
C763        C  0.12651895  0.85126339  0.19636521     0.94600
O764        O  0.09564141  0.84347303  0.20353877    -0.81500
O765        O  0.22446366  0.55417947  0.00543751    -0.81000
C766        C  0.10490565  0.54236064  0.08853010     0.98400
O767        O  0.11686974  0.53153782  0.05803302    -0.70100
O768        O  0.15442792  0.53322604  0.99747680    -0.73700
Al769      Al  0.16457863  0.52313860  0.04932227     1.49000
C770        C  0.15318815  0.56065218  0.97834022     0.93600
O771        O  0.17910655  0.63606818  0.04503077    -0.79900
O772        O  0.20696074  0.61153371  0.11165122    -0.73500
Al773      Al  0.19945898  0.59167457  0.02894190     1.90100
O774        O  0.14035142  0.61992180  0.08502500    -0.72500
O775        O  0.19191108  0.55035705  0.13044304    -0.72400
O776        O  0.12373699  0.55931116  0.11151132    -0.78000
O777        O  0.17215875  0.50491698  0.09984388    -0.76200
O778        O  0.17636052  0.56612871  0.06092897    -1.12400
O779        O  0.21085396  0.50908352  0.03847130    -0.71600
C780        C  0.22925489  0.52286121  0.01395096     0.99200
C781        C  0.15384973  0.64318104  0.06589982     0.95600
Al782      Al  0.16645609  0.58371199  0.10573910     1.55600
O783        O  0.16481494  0.58888032  0.99105628    -0.76200
C784        C  0.18509434  0.51889865  0.12931967     0.99700
C785        C  0.23544106  0.60724770  0.09615008     0.94600
O786        O  0.23693793  0.59493915  0.06349441    -0.81500
O787        O  0.48818438  0.92604196  0.14466457    -0.81000
C788        C  0.41553124  0.54886582  0.12102551     0.98400
O789        O  0.43346190  0.53282843  0.09764199    -0.70100
O790        O  0.49834606  0.52666076  0.12266157    -0.73700
Al791      Al  0.46378183  0.99626640  0.10588172     1.49000
C792        C  0.02470999  0.51411462  0.14017770     0.93600
O793        O  0.47732933  0.99374615  0.21892650    -0.79900
O794        O  0.39901099  0.94038705  0.17809862    -0.73500
Al795      Al  0.48147420  0.96098710  0.18076603     1.90100
O796        O  0.42035169  0.49944818  0.21429301    -0.72500
O797        O  0.38677206  0.97818846  0.11479345    -0.72400
O798        O  0.40839352  0.53505115  0.15187637    -0.78000
O799        O  0.43270485  0.96730710  0.08181812    -0.76200
O800        O  0.45064721  0.98183020  0.15090586    -1.12400
O801        O  0.49746782  0.96135897  0.09802426    -0.71600
C802        C  0.50105686  0.93243057  0.11328061     0.99200
C803        C  0.44889844  0.50653070  0.23094569     0.95600
Al804      Al  0.40727055  0.98787188  0.16503738     1.55600
O805        O  0.02107183  0.98843091  0.16491358    -0.76200
C806        C  0.40054709  0.96848874  0.08444210     0.99700
C807        C  0.41756981  0.92307250  0.20104289     0.94600
O808        O  0.44934236  0.93030953  0.20525609    -0.81500
O809        O  0.47397792  0.61878773  0.38938485    -0.81000
C810        C  0.35033094  0.54478920  0.37013858     0.98400
O811        O  0.36538254  0.56243045  0.34606952    -0.70100
O812        O  0.37379106  0.62711158  0.36791107    -0.73700
Al813      Al  0.40376132  0.59317887  0.34957148     1.49000
C814        C  0.38593382  0.65326202  0.38474063     0.93600
O815        O  0.40766665  0.60771346  0.46193471    -0.79900
O816        O  0.46313283  0.53050009  0.42511709    -0.73500
Al817      Al  0.43990514  0.61205539  0.42459998     1.90100
O818        O  0.40572770  0.55082676  0.46235093    -0.72500
O819        O  0.42267690  0.51665303  0.36232972    -0.72400
O820        O  0.36535004  0.53793426  0.40134029    -0.78000
O821        O  0.43236029  0.56189590  0.32722517    -0.76200
O822        O  0.41925893  0.58072673  0.39544792    -1.12400
O823        O  0.43837410  0.62676005  0.34084981    -0.71600
C824        C  0.46736951  0.63071028  0.35701870     0.99200
C825        C  0.40155773  0.57982915  0.47814641     0.95600
Al826      Al  0.41452514  0.53752345  0.41133772     1.55600
O827        O  0.41295248  0.65099660  0.40565309    -0.76200
C828        C  0.43186861  0.52987061  0.33159850     0.99700
C829        C  0.48035016  0.54975217  0.44776210     0.94600
O830        O  0.47171657  0.58105096  0.45103023    -0.81500
O831        O  0.05016309  0.66791934  0.39611455    -0.81000
C832        C  0.17342522  0.73966262  0.36999149     0.98400
O833        O  0.15690220  0.71967232  0.34818484    -0.70100
O834        O  0.14984335  0.65844005  0.37910591    -0.73700
Al835      Al  0.11900528  0.68944391  0.35557758     1.49000
C836        C  0.13827368  0.63400412  0.39822818     0.93600
O837        O  0.11726510  0.68871241  0.47137612    -0.79900
O838        O  0.06455540  0.76017087  0.41971055    -0.73500
Al839      Al  0.08516959  0.67954518  0.43202238     1.90100
O840        O  0.12315487  0.74448187  0.46163686    -0.72500
O841        O  0.10177556  0.76645525  0.35826823    -0.72400
O842        O  0.16064024  0.74918585  0.40060999    -0.78000
O843        O  0.08903214  0.71790524  0.32869901    -0.76200
O844        O  0.10561889  0.70694310  0.39942949    -1.12400
O845        O  0.08477817  0.65486181  0.35052986    -0.71600
C846        C  0.05639544  0.65202893  0.36604496     0.99200
C847        C  0.12603723  0.71834495  0.48263384     0.95600
Al848      Al  0.11196674  0.75139394  0.40933907     1.55600
O849        O  0.11247665  0.63859714  0.41905170    -0.76200
C850        C  0.09099999  0.75017028  0.32921287     0.99700
C851        C  0.04668922  0.74491839  0.44359691     0.94600
O852        O  0.05384125  0.71406889  0.45242868    -0.81500
O853        O  0.32267900  0.85464970  0.25161752    -0.81000
C854        C  0.35930501  0.73500026  0.33179452     0.98400
O855        O  0.36651531  0.74915937  0.30112571    -0.70100
O856        O  0.35337370  0.78730961  0.24000883    -0.73700
Al857      Al  0.36641146  0.79792796  0.29164923     1.49000
C858        C  0.32444465  0.78304257  0.22286269     0.93600
O859        O  0.25240900  0.79557925  0.29330028    -0.79900
O860        O  0.27611339  0.82138102  0.35919308    -0.73500
Al861      Al  0.29141816  0.82300055  0.27619306     1.90100
O862        O  0.27743946  0.75715515  0.33026542    -0.72500
O863        O  0.34072653  0.81771041  0.37505523    -0.72400
O864        O  0.34155639  0.75068756  0.35526431    -0.78000
O865        O  0.38678519  0.80809681  0.34186981    -0.76200
O866        O  0.32293635  0.80287824  0.30584725    -1.12400
O867        O  0.37334392  0.84555851  0.27850618    -0.71600
C868        C  0.35435793  0.86243289  0.25555857     0.99200
C869        C  0.25073150  0.76883089  0.31367388     0.95600
Al870      Al  0.31034714  0.78797290  0.35086172     1.55600
O871        O  0.29636196  0.79061983  0.23767003    -0.76200
C872        C  0.37289904  0.81727792  0.37235585     0.99700
C873        C  0.27242344  0.85045393  0.34468715     0.94600
O874        O  0.28392802  0.85733897  0.31270030    -0.81500
O875        O  0.18535022  0.93225153  0.26091005    -0.81000
C876        C  0.16085139  0.55108318  0.34518747     0.98400
O877        O  0.15017424  0.53734430  0.31472060    -0.70100
O878        O  0.15569545  0.50051512  0.25262162    -0.70500
Al879      Al  0.14895071  0.99094195  0.30529698     1.49000
C880        C  0.18220959  0.50304030  0.23302558     0.93600
O881        O  0.26229551  0.98929888  0.29802941    -0.79900
O882        O  0.24546222  0.96335484  0.36565694    -0.73500
Al883      Al  0.22036197  0.96314415  0.28353616     1.90100
O884        O  0.24222008  0.52640884  0.33831880    -0.72500
O885        O  0.18306175  0.97047829  0.38684695    -0.72400
O886        O  0.18083102  0.53486947  0.36718002    -0.78000
O887        O  0.13420279  0.98109371  0.35580802    -0.76200
O888        O  0.19353676  0.98453310  0.31601487    -1.12400
O889        O  0.13939854  0.94334136  0.29276301    -0.71600
C890        C  0.15444727  0.92521396  0.26854547     0.99200
C891        C  0.26648221  0.51445317  0.31935317     0.95600
Al892      Al  0.21194707  0.99868061  0.36042069     1.55600
O893        O  0.21176909  0.99499453  0.24517918    -0.76200
C894        C  0.15068193  0.97112903  0.38519238     0.99700
C895        C  0.24564098  0.93431350  0.35020383     0.94600
O896        O  0.23050324  0.92882478  0.31880906    -0.81500
C897        C  0.25238230  0.87569210  0.36399817    -0.15600
C898        C  0.26554760  0.90696812  0.36729845    -0.30800
H899        H  0.22454505  0.87212689  0.36215106     0.13400
H900        H  0.29334479  0.91068559  0.36952160     0.14000
C901        C  0.20772169  0.75206851  0.35910052    -0.15600
C902        C  0.21690785  0.75420859  0.32275899    -0.30800
H903        H  0.22537228  0.76128184  0.38135049     0.13400
H904        H  0.19835279  0.74844544  0.30001221     0.14000
C905        C  0.15119969  0.59887554  0.39090975    -0.15600
C906        C  0.15017525  0.58647999  0.35518536    -0.30800
H907        H  0.15824276  0.58227484  0.41443010     0.13400
H908        H  0.13990963  0.60260966  0.33254495     0.14000
C909        C  0.03178592  0.62720964  0.35141618    -0.15600
C910        C  0.49300687  0.65187883  0.34000049    -0.30800
H911        H  0.03617428  0.60069520  0.36005306     0.13400
H912        H  0.48824649  0.67947486  0.34032639     0.14000
C913        C  0.37164994  0.69991224  0.34092161    -0.15600
C914        C  0.37117618  0.68733571  0.37630723    -0.30800
H915        H  0.38239109  0.68443748  0.31855334     0.13400
H916        H  0.36325988  0.70346574  0.39955686     0.14000
C917        C  0.31478936  0.53228479  0.36154099    -0.15600
C918        C  0.30167534  0.52847132  0.32594061    -0.30800
H919        H  0.29930009  0.52479185  0.38507907     0.13400
H920        H  0.32012236  0.03089465  0.30136817     0.14000
C921        C  0.40279969  0.89467706  0.22458870    -0.15600
C922        C  0.36872813  0.89084318  0.23170142    -0.30800
H923        H  0.42114180  0.87732210  0.23838718     0.13400
H924        H  0.35030767  0.90811613  0.21792418     0.14000
C925        C  0.44907692  0.52416249  0.26693448    -0.15600
C926        C  0.43899427  0.50862679  0.29847528    -0.30800
H927        H  0.45659915  0.55110042  0.26693460     0.13400
H928        H  0.43259203  0.48139114  0.29840888     0.14000
C929        C  0.18858302  0.50062544  0.16493464    -0.15600
C930        C  0.17844711  0.51753103  0.19579297    -0.30800
H931        H  0.19806552  0.47430396  0.16616456     0.13400
H932        H  0.16559531  0.54238565  0.19346351     0.14000
C933        C  0.05874136  0.52956572  0.13327273    -0.15600
C934        C  0.06888381  0.53410074  0.09764905    -0.30800
H935        H  0.07738160  0.53196944  0.15664888     0.13400
H936        H  0.05111812  0.52778658  0.07432020     0.14000
C937        C  0.13488487  0.89635158  0.24853432    -0.15600
C938        C  0.14568962  0.88001599  0.21698727    -0.30800
H939        H  0.11002125  0.88929025  0.25941665     0.13400
H940        H  0.17054158  0.88724961  0.20617656     0.14000
C941        C  0.10008542  0.75387774  0.26324517    -0.15600
C942        C  0.08531757  0.76769432  0.29346578    -0.30800
H943        H  0.11676746  0.73143946  0.26609289     0.13400
H944        H  0.07201667  0.79231099  0.29208020     0.14000
C945        C  0.01414877  0.87287066  0.09899580    -0.15600
C946        C  0.02487030  0.90518655  0.10260824    -0.30800
H947        H  0.98677956  0.86706232  0.09591407     0.13400
H948        H  0.05230272  0.91077696  0.10563415     0.14000
C949        C  0.13288337  0.69011923  0.10585597    -0.15600
C950        C  0.14156365  0.67916816  0.07114132    -0.30800
H951        H  0.13631267  0.67266541  0.12949864     0.13400
H952        H  0.14184751  0.69707071  0.04778567     0.14000
C953        C  0.33832919  0.78254364  0.15595128    -0.15600
C954        C  0.32327053  0.76781911  0.18547703    -0.30800
H955        H  0.34851220  0.80856967  0.15788562     0.13400
H956        H  0.31149522  0.74249082  0.18293065     0.14000
C957        C  0.27071450  0.65358512  0.11735881    -0.15600
C958        C  0.26717778  0.61965648  0.11403885    -0.30800
H959        H  0.24771363  0.66968269  0.11702656     0.13400
H960        H  0.29004403  0.60398374  0.10968553     0.14000
C961        C  0.46446817  0.74795981  0.09482855    -0.15600
C962        C  0.47792429  0.75231153  0.13023336    -0.30800
H963        H  0.48008933  0.75462900  0.07110555     0.13400
H964        H  0.46155179  0.74928345  0.15420237     0.14000
C965        C  0.39455529  0.59573678  0.07797557    -0.15600
C966        C  0.40323841  0.58436876  0.11288558    -0.30800
H967        H  0.39477676  0.57808574  0.05417216     0.13400
H968        H  0.39942739  0.60132207  0.13684909     0.14000
C969        C  0.37753409  0.71601447  0.91161831    -0.15600
C970        C  0.39219493  0.70194165  0.94270388    -0.30800
H971        H  0.35194352  0.72743948  0.91239652     0.13400
H972        H  0.41727244  0.68945083  0.94204452     0.14000
C973        C  0.15172917  0.56894305  0.90929443    -0.15600
C974        C  0.13662195  0.55919971  0.94126339    -0.30800
H975        H  0.17844605  0.57732501  0.90914851     0.13400
H976        H  0.11122297  0.54729005  0.94012274     0.14000
C977        C  0.99235948  0.64484338  0.87333246    -0.15600
C978        C  0.02606833  0.63929518  0.87451219    -0.30800
H979        H  0.47964986  0.62103391  0.86290590     0.13400
H980        H  0.04346693  0.66129389  0.87451746     0.14000
C981        C  0.26844634  0.75676073  0.98225968    -0.15600
C982        C  0.26152033  0.79047581  0.97562357    -0.30800
H983        H  0.25200060  0.73778382  0.96804423     0.13400
H984        H  0.27759763  0.80971215  0.98987602     0.14000
C985        C  0.13644847  0.83358334  0.01694726    -0.15600
C986        C  0.15342291  0.81891900  0.04617260    -0.30800
H987        H  0.11075792  0.84436849  0.01965180     0.13400
H988        H  0.17966637  0.80954316  0.04341284     0.14000
C989        C  0.06663360  0.78240927  0.86516131    -0.15600
C990        C  0.05463246  0.77113286  0.83107508    -0.30800
H991        H  0.05029245  0.78004030  0.88927510     0.13400
H992        H  0.07176942  0.77005182  0.80753209     0.14000
C993        C  0.12115537  0.93908329  0.87821012    -0.15600
C994        C  0.11755428  0.95060488  0.84253409    -0.30800
H995        H  0.11722440  0.95646655  0.90173822     0.13400
H996        H  0.12494773  0.93408012  0.81935178     0.14000
C997        C  0.27067760  0.51224452  0.96242554    -0.15600
C998        C  0.25595107  0.50183147  0.99451555    -0.30800
H999        H  0.26313079  0.53702394  0.95070475     0.13400
H1000       H  0.26311017  0.47704609  0.00645350     0.14000
C1001       C  0.39486091  0.97000703  0.01683217    -0.15600
C1002       C  0.38031129  0.96158994  0.04952676    -0.30800
H1003       H  0.41962670  0.98312749  0.01696267     0.13400
H1004       H  0.35407813  0.95188231  0.05021491     0.14000
C1005       C  0.24774668  0.89872763  0.84165177    -0.15600
C1006       C  0.27863638  0.88386995  0.84413645    -0.30800
H1007       H  0.24569488  0.92660914  0.84004477     0.13400
H1008       H  0.28064271  0.85598413  0.84597525     0.14000
C1009       C  0.45819266  0.00295501  0.86105731    -0.15600
C1010       C  0.47078370  0.51035003  0.82422116    -0.30800
H1011       H  0.47601089  0.00841741  0.88457273     0.13400
H1012       H  0.45545960  0.50239314  0.79952640     0.14000
C1013       C  0.41151868  0.83786702  0.85252729    -0.15600
C1014       C  0.40494074  0.84821849  0.88802006    -0.30800
H1015       H  0.40649518  0.85548223  0.82931572     0.13400
H1016       H  0.40617813  0.82989430  0.91100342     0.14000
C1017       C  0.38984809  0.64791221  0.74385688    -0.15600
C1018       C  0.40247934  0.62860539  0.71544344    -0.30800
H1019       H  0.36369699  0.64316631  0.75260589     0.13400
H1020       H  0.42856842  0.63336135  0.70650711     0.14000
C1021       C  0.40622070  0.56512720  0.54460463    -0.15600
C1022       C  0.38948180  0.58132078  0.51610500    -0.30800
H1023       H  0.43123730  0.55317364  0.54071842     0.13400
H1024       H  0.36535069  0.59491581  0.52023973     0.14000
C1025       C  0.34587437  0.50465472  0.76100238    -0.15600
C1026       C  0.33468005  0.52018436  0.79219812    -0.30800
H1027       H  0.35947181  0.48017156  0.76265587     0.13400
H1028       H  0.32435903  0.04529070  0.79370643     0.14000
C1029       C  0.12244580  0.64382027  0.73707690    -0.15600
C1030       C  0.15617167  0.64856593  0.73057763    -0.30800
H1031       H  0.10366370  0.66045622  0.72292425     0.13400
H1032       H  0.17510470  0.63219585  0.74485374     0.14000
C1033       C  0.12637032  0.71238818  0.55213618    -0.15600
C1034       C  0.14125933  0.72283742  0.52025407    -0.30800
H1035       H  0.10050238  0.70166742  0.55187038     0.13400
H1036       H  0.16555368  0.73683296  0.52179666     0.14000
C1037       C  0.20247137  0.77514823  0.76967001    -0.15600
C1038       C  0.19201855  0.75982653  0.80131833    -0.30800
H1039       H  0.21071139  0.80187562  0.76987824     0.13400
H1040       H  0.18485670  0.73278524  0.80110197     0.14000
C1041       C  0.25271534  0.64490720  0.59861328    -0.15600
C1042       C  0.28628422  0.63877935  0.59619416    -0.30800
H1043       H  0.23534129  0.62320172  0.60185402     0.13400
H1044       H  0.30408446  0.66040670  0.59798580     0.14000
C1045       C  0.00339385  0.75499645  0.49432642    -0.15600
C1046       C  0.01821791  0.76453891  0.46191878    -0.30800
H1047       H  0.50867401  0.73551108  0.50305887     0.13400
H1048       H  0.01065295  0.78895008  0.44932060     0.14000
C1049       C  0.37897937  0.81433440  0.43996069    -0.15600
C1050       C  0.39314379  0.82390101  0.40739616    -0.30800
H1051       H  0.35422876  0.80117811  0.43952379     0.13400
H1052       H  0.41942807  0.83345617  0.40677136     0.14000
C1053       C  0.43919259  0.75484453  0.66277915    -0.15600
C1054       C  0.44607059  0.77184728  0.69538006    -0.30800
H1055       H  0.43496366  0.72718901  0.66275621     0.13400
H1056       H  0.44933285  0.79961464  0.69590313     0.14000
C1057       C  0.30672260  0.77796048  0.63191016    -0.15600
C1058       C  0.31566342  0.78488807  0.59637969    -0.30800
H1059       H  0.32590120  0.77943604  0.65480247     0.13400
H1060       H  0.29747309  0.77963246  0.57318697     0.14000
C1061       C  0.38187157  0.93331714  0.56952934    -0.15600
C1062       C  0.36879277  0.94240362  0.60305082    -0.30800
H1063       H  0.38586825  0.95270611  0.54819125     0.13400
H1064       H  0.36852674  0.92356084  0.62554633     0.14000
C1065       C  0.02170415  0.52625242  0.49273604    -0.15600
C1066       C  0.00205062  0.51473614  0.46281337    -0.30800
H1067       H  0.99479586  0.98465187  0.47848135     0.13400
H1068       H  0.00625694  0.48861054  0.45290368     0.14000
C1069       C  0.08892878  0.53809672  0.66172917    -0.15600
C1070       C  0.06995230  0.52502951  0.68918377    -0.30800
H1071       H  0.06910418  0.05994211  0.65729680     0.13400
H1072       H  0.05435435  0.50205761  0.68452176     0.14000
C1073       C  0.13274956  0.96320675  0.41971417    -0.15600
C1074       C  0.14888155  0.97005065  0.45300818    -0.30800
H1075       H  0.10576655  0.95563232  0.41820048     0.13400
H1076       H  0.17465488  0.98110344  0.45405463     0.14000
C1077       C  0.51109618  0.87292128  0.61327584    -0.15600
C1078       C  0.01725686  0.90400160  0.61995660    -0.30800
H1079       H  0.53267913  0.85617400  0.60671272     0.13400
H1080       H  0.99600433  0.92146149  0.62522079     0.14000
C1081       C  0.21020994  0.99303630  0.60852677    -0.15600
C1082       C  0.22706079  0.51119334  0.63378501    -0.30800
H1083       H  0.22939738  0.97566676  0.59740444     0.13400
H1084       H  0.20969792  0.51517305  0.65679376     0.14000
C1085       C  0.14996368  0.83453610  0.61467210    -0.15600
C1086       C  0.14533699  0.84837460  0.57983644    -0.30800
H1087       H  0.14122776  0.84892141  0.63888885     0.13400
H1088       H  0.15250527  0.83388955  0.55506016     0.14000
O1089       O  0.55482357  0.45853294  0.50213478    -0.81000
C1090       C  0.67300067  0.49101005  0.58988406     0.98400
O1091       O  0.65827129  0.49944510  0.55914104    -0.70100
O1092       O  0.62235595  0.48540500  0.49691798    -0.73700
Al1093     Al  0.61003984  0.50070249  0.54622136     1.49000
C1094       C  0.62775011  0.45580032  0.48289166     0.93600
O1095       O  0.60555362  0.38634461  0.55471587    -0.79900
O1096       O  0.57710482  0.41588747  0.61651799    -0.73500
Al1097     Al  0.58274724  0.42693596  0.53256682     1.90100
O1098       O  0.64420157  0.40850185  0.59394285    -0.72500
O1099       O  0.58873019  0.47871639  0.62929954    -0.72400
O1100       O  0.65712792  0.47334051  0.61348893    -0.78000
O1101       O  0.58256443  0.02227696  0.59223672    -0.76200
O1102       O  0.60327569  0.45788161  0.56245098    -1.12400
O1103       O  0.56887532  0.00856677  0.51920568    -0.71600
C1104       C  0.54626738  0.48984672  0.50501043     0.99200
C1105       C  0.63186947  0.38276870  0.57654207     0.95600
Al1106     Al  0.61585033  0.44542383  0.60917917     1.55600
O1107       O  0.61826497  0.42843287  0.49834507    -0.76200
C1108       C  0.58907142  0.01537787  0.62639114     0.99700
C1109       C  0.54829855  0.41608981  0.59894404     0.94600
O1110       O  0.54558120  0.42448142  0.56481626    -0.81500
O1111       O  0.97121273  0.31000509  0.50156896    -0.81000
C1112       C  0.85468572  0.29258843  0.58885672     0.98400
O1113       O  0.86629720  0.28261747  0.55788438    -0.70100
O1114       O  0.90184034  0.28615597  0.49586138    -0.73700
Al1115     Al  0.91395968  0.27656700  0.54775453     1.49000
C1116       C  0.89882953  0.31353936  0.47669221     0.93600
O1117       O  0.92321228  0.39001475  0.54272084    -0.79900
O1118       O  0.95366941  0.36696701  0.60837997    -0.73500
Al1119     Al  0.94507884  0.34648970  0.52598129     1.90100
O1120       O  0.88606852  0.37224887  0.58372377    -0.72500
O1121       O  0.94207396  0.30516621  0.62832277    -0.72400
O1122       O  0.87310464  0.31064638  0.61121610    -0.78000
O1123       O  0.92381598  0.25882209  0.59845429    -0.76200
O1124       O  0.92398209  0.32002778  0.55883063    -1.12400
O1125       O  0.96040155  0.26475161  0.53561722    -0.71600
C1126       C  0.97756659  0.27900202  0.51037594     0.99200
C1127       C  0.89813725  0.39611155  0.56424556     0.95600
Al1128     Al  0.91439908  0.33724181  0.60394641     1.55600
O1129       O  0.90960020  0.34220824  0.48910576    -0.76200
C1130       C  0.93677250  0.27338571  0.62767419     0.99700
C1131       C  0.98193633  0.36355228  0.59218685     0.94600
O1132       O  0.98316766  0.35135095  0.55945569    -0.81500
O1133       O  0.73433409  0.17405783  0.64895694    -0.81000
C1134       C  0.66903649  0.30202825  0.62670846     0.98400
O1135       O  0.68572322  0.28512635  0.60289934    -0.70100
O1136       O  0.75046051  0.27213760  0.62408965    -0.73700
Al1137     Al  0.71372456  0.24400740  0.60680486     1.49000
C1138       C  0.77639615  0.25967581  0.64134787     0.93600
O1139       O  0.73181983  0.24627633  0.71905030    -0.79900
O1140       O  0.65029458  0.19308630  0.68284471    -0.73500
Al1141     Al  0.73258456  0.21117466  0.68275204     1.90100
O1142       O  0.67490862  0.25153220  0.71944158    -0.72500
O1143       O  0.63602742  0.23115484  0.61936528    -0.72400
O1144       O  0.66202561  0.28865728  0.65787345    -0.78000
O1145       O  0.67993236  0.21688092  0.58510012    -0.76200
O1146       O  0.70168967  0.23223995  0.65300465    -1.12400
O1147       O  0.74331776  0.20519160  0.59880176    -0.71600
C1148       C  0.74206043  0.17640173  0.61496929     0.99200
C1149       C  0.70470215  0.25581524  0.73475222     0.95600
Al1150     Al  0.65923801  0.24037000  0.66858912     1.55600
O1151       O  0.77313755  0.23360771  0.66236381    -0.76200
C1152       C  0.64819827  0.22072868  0.58847499     0.99700
C1153       C  0.66907061  0.17617037  0.70608062     0.94600
O1154       O  0.70058277  0.18385649  0.71057332    -0.81500
O1155       O  0.80858238  0.10752504  0.64480227    -0.81000
C1156       C  0.86389250  0.47780498  0.61375992     0.98400
O1157       O  0.84263032  0.99321122  0.59320485    -0.70100
O1158       O  0.78080607  0.01153557  0.61849330    -0.73700
Al1159     Al  0.81852078  0.03650132  0.59976940     1.49000
C1160       C  0.75771370  0.02678768  0.63646430     0.93600
O1161       O  0.81107852  0.03433949  0.71293291    -0.79900
O1162       O  0.89205918  0.08150308  0.67401677    -0.73500
Al1163     Al  0.80994354  0.06991247  0.67744981     1.90100
O1164       O  0.86697992  0.02299131  0.70899520    -0.72500
O1165       O  0.89826666  0.04480879  0.61018829    -0.72400
O1166       O  0.87280626  0.98764141  0.64590050    -0.78000
O1167       O  0.85242753  0.06048706  0.57671858    -0.76200
O1168       O  0.83598218  0.04659623  0.64559160    -1.12400
O1169       O  0.79202482  0.07821481  0.59430597    -0.71600
C1170       C  0.79695927  0.10649009  0.61139975     0.99200
C1171       C  0.83871451  0.02112653  0.72596035     0.95600
Al1172     Al  0.87900136  0.03521005  0.65882434     1.55600
O1173       O  0.76572716  0.05200322  0.65785122    -0.76200
C1174       C  0.88444547  0.05720110  0.58044684     0.99700
C1175       C  0.87729141  0.10011952  0.69801277     0.94600
O1176       O  0.84624970  0.09413863  0.70526634    -0.81500
O1177       O  0.80014260  0.42330868  0.89426366    -0.81000
C1178       C  0.92450974  0.49263015  0.87064750     0.98400
O1179       O  0.90813971  0.47354033  0.84758273    -0.70100
O1180       O  0.89968325  0.41167079  0.87637679    -0.73700
Al1181     Al  0.86934042  0.44352412  0.85372063     1.49000
C1182       C  0.88787826  0.38697982  0.89484835     0.93600
O1183       O  0.86904521  0.44002433  0.96836263    -0.79900
O1184       O  0.81447966  0.00977953  0.91975963    -0.73500
Al1185     Al  0.83582652  0.43252721  0.92986301     1.90100
O1186       O  0.87387991  0.49627823  0.96079895    -0.72500
O1187       O  0.85220650  0.01804256  0.85919683    -0.72400
O1188       O  0.91113917  0.50177037  0.90094602    -0.78000
O1189       O  0.83982358  0.47279951  0.82769654    -0.76200
O1190       O  0.85627702  0.46029169  0.89785011    -1.12400
O1191       O  0.83375155  0.40978076  0.84785061    -0.71600
C1192       C  0.80486425  0.40907191  0.86286577     0.99200
C1193       C  0.87806444  0.46935976  0.98035694     0.95600
Al1194     Al  0.86209012  0.00218136  0.91039226     1.55600
O1195       O  0.86179656  0.39127677  0.91527801    -0.76200
C1196       C  0.84231046  0.00189493  0.82962438     0.99700
C1197       C  0.79821136  0.49776019  0.94317370     0.94600
O1198       O  0.80570855  0.46701557  0.95199012    -0.81500
O1199       O  0.72421844  0.37077761  0.89587574    -0.81000
C1200       C  0.60601564  0.28943922  0.87173389     0.98400
O1201       O  0.62115872  0.30639505  0.84696417    -0.70100
O1202       O  0.62493705  0.37193390  0.86702828    -0.73700
Al1203     Al  0.65799579  0.33970818  0.85150622     1.49000
C1204       C  0.63392339  0.39879796  0.88471118     0.93600
O1205       O  0.65394041  0.35531260  0.96309499    -0.79900
O1206       O  0.71726044  0.28231124  0.92934588    -0.73500
Al1207     Al  0.68845526  0.36172052  0.92845109     1.90100
O1208       O  0.65748908  0.29859706  0.96490109    -0.72500
O1209       O  0.67988286  0.26466975  0.86616363    -0.72400
O1210       O  0.62070208  0.28378656  0.90326509    -0.78000
O1211       O  0.68989945  0.31002859  0.83167000    -0.76200
O1212       O  0.67176427  0.32896349  0.89832697    -1.12400
O1213       O  0.69139622  0.37513830  0.84444819    -0.71600
C1214       C  0.71916722  0.38110623  0.86258765     0.99200
C1215       C  0.64878323  0.32717002  0.97917109     0.95600
Al1216     Al  0.66906839  0.28576921  0.91449663     1.55600
O1217       O  0.66002785  0.39862950  0.90715707    -0.76200
C1218       C  0.69021278  0.27803569  0.83598755     0.99700
C1219       C  0.73209704  0.30214522  0.95322667     0.94600
O1220       O  0.72091229  0.33262348  0.95725622    -0.81500
O1221       O  0.57610780  0.10575032  0.75414155    -0.81000
C1222       C  0.60927432  0.48130463  0.83357987     0.98400
O1223       O  0.61535797  0.99857447  0.80170945    -0.70100
O1224       O  0.60186040  0.03725720  0.74206901    -0.73700
Al1225     Al  0.61790010  0.04716181  0.79276100     1.49000
C1226       C  0.57215146  0.03397543  0.72631636     0.93600
O1227       O  0.50423664  0.05305161  0.79981105    -0.79900
O1228       O  0.53363387  0.07817847  0.86441364    -0.73500
Al1229     Al  0.54443545  0.07704365  0.78050785     1.90100
O1230       O  0.52754478  0.01301247  0.83588045    -0.72500
O1231       O  0.59718106  0.06803046  0.87687942    -0.72400
O1232       O  0.59183178  0.00085455  0.85673082    -0.78000
O1233       O  0.64123537  0.05514112  0.84221707    -0.76200
O1234       O  0.57549993  0.05461386  0.80875702    -1.12400
O1235       O  0.62681490  0.09480934  0.77998001    -0.71600
C1236       C  0.60779669  0.11278445  0.75801478     0.99200
C1237       C  0.50145861  0.02589982  0.81930515     0.95600
Al1238     Al  0.56372026  0.04099752  0.85442328     1.55600
O1239       O  0.54502577  0.04403799  0.74171833    -0.76200
C1240       C  0.62896212  0.06458904  0.87343907     0.99700
C1241       C  0.53598869  0.10784364  0.85085668     0.94600
O1242       O  0.54310813  0.11231042  0.81691615    -0.81500
O1243       O  0.93337379  0.18388669  0.75796523    -0.81000
C1244       C  0.91494927  0.30575871  0.84207120     0.98400
O1245       O  0.90443482  0.29279140  0.81115672    -0.70100
O1246       O  0.91069059  0.25528263  0.74950349    -0.73700
Al1247     Al  0.89876761  0.24475796  0.80019022     1.49000
C1248       C  0.93882259  0.25633757  0.73225950     0.93600
O1249       O  0.51588134  0.22821981  0.80505509    -0.79900
O1250       O  0.98657020  0.20716862  0.86777183    -0.73500
Al1251     Al  0.96887114  0.21080248  0.78406328     1.90100
O1252       O  0.49860024  0.26897283  0.84321845    -0.72500
O1253       O  0.92511016  0.22183472  0.88338501    -0.72400
O1254       O  0.93323050  0.28842773  0.86484257    -0.78000
O1255       O  0.87931213  0.23631228  0.84912762    -0.76200
O1256       O  0.94189557  0.23461787  0.81438172    -1.12400
O1257       O  0.88649293  0.19793965  0.78672496    -0.71600
C1258       C  0.90201335  0.17837149  0.76424728     0.99200
C1259       C  0.52222578  0.25474115  0.82518293     0.95600
Al1260     Al  0.95845430  0.24658815  0.86016663     1.55600
O1261       O  0.96658184  0.24412066  0.74608749    -0.76200
C1262       C  0.89305265  0.22439647  0.87918883     0.99700
C1263       C  0.98233038  0.17810038  0.85266458     0.94600
O1264       O  0.97147065  0.17495837  0.81913235    -0.81500
O1265       O  0.80585902  0.21020426  0.00313211    -0.81000
C1266       C  0.92817031  0.23511590  0.08610541     0.98400
O1267       O  0.91375370  0.24382613  0.05515714    -0.70100
O1268       O  0.87346444  0.23294976  0.99378352    -0.73700
Al1269     Al  0.86509913  0.24868582  0.04425954     1.49000
C1270       C  0.87574084  0.20320715  0.97898454     0.93600
O1271       O  0.85373063  0.13506687  0.05296587    -0.79900
O1272       O  0.82862641  0.16645639  0.11617991    -0.73500
Al1273     Al  0.83268710  0.17690791  0.03184366     1.90100
O1274       O  0.89428953  0.15500929  0.09134273    -0.72500
O1275       O  0.84487276  0.22874427  0.12858356    -0.72400
O1276       O  0.91153840  0.21872319  0.11010992    -0.78000
O1277       O  0.85838905  0.27194989  0.09242545    -0.76200
O1278       O  0.85593651  0.20652463  0.06098457    -1.12400
O1279       O  0.81737252  0.25985975  0.02976797    -0.71600
C1280       C  0.79917092  0.24186478  0.00680852     0.99200
C1281       C  0.88018163  0.13006757  0.07418911     0.95600
Al1282     Al  0.86886550  0.19352798  0.10744363     1.55600
O1283       O  0.86689069  0.17635247  0.99587404    -0.76200
C1284       C  0.84760415  0.26038717  0.12324253     0.99700
C1285       C  0.79952782  0.16776037  0.09929386     0.94600
O1286       O  0.79645855  0.17653975  0.06536063    -0.81500
O1287       O  0.54741672  0.34920427  0.14406986    -0.81000
C1288       C  0.61557015  0.22424498  0.11454571     0.98400
O1289       O  0.59641998  0.24106411  0.09189048    -0.70100
O1290       O  0.53318996  0.25101712  0.11781800    -0.73700
Al1291     Al  0.56695371  0.28076247  0.09917531     1.49000
C1292       C  0.50893540  0.26270531  0.13701879     0.93600
O1293       O  0.56220067  0.27850503  0.21348908    -0.79900
O1294       O  0.63695633  0.33211881  0.17138502    -0.73500
Al1295     Al  0.55576101  0.31270354  0.17730846     1.90100
O1296       O  0.61859134  0.27289167  0.20827175    -0.72500
O1297       O  0.64479414  0.29507797  0.10841858    -0.72400
O1298       O  0.62447416  0.23700430  0.14607708    -0.78000
O1299       O  0.59764877  0.30978272  0.07652587    -0.76200
O1300       O  0.58350747  0.29243734  0.14502195    -1.12400
O1301       O  0.53410961  0.31752425  0.09435579    -0.71600
C1302       C  0.53316762  0.34569047  0.11193318     0.99200
C1303       C  0.59123567  0.26867486  0.22612700     0.95600
Al1304     Al  0.62757425  0.28494071  0.15757093     1.55600
O1305       O  0.51412900  0.28796313  0.15946587    -0.76200
C1306       C  0.62989951  0.30728948  0.07922351     0.99700
C1307       C  0.62146030  0.34960044  0.19578796     0.94600
O1308       O  0.59056680  0.34202845  0.20306910    -0.81500
O1309       O  0.72225053  0.05510173  0.00506528    -0.81000
C1310       C  0.60352230  0.04214334  0.09001502     0.98400
O1311       O  0.61501414  0.03171427  0.05910291    -0.70100
O1312       O  0.65206278  0.03349009  0.99769096    -0.73700
Al1313     Al  0.66278984  0.02378170  0.04973550     1.49000
C1314       C  0.65091521  0.06065916  0.97802075     0.93600
O1315       O  0.67604030  0.13672839  0.04426457    -0.79900
O1316       O  0.70447963  0.11350161  0.11051094    -0.73500
Al1317     Al  0.69698935  0.09247768  0.02833680     1.90100
O1318       O  0.63750948  0.11986642  0.08423137    -0.72500
O1319       O  0.69104840  0.05215246  0.13017670    -0.72400
O1320       O  0.62251638  0.05946333  0.11246342    -0.78000
O1321       O  0.67120903  0.00614953  0.10065182    -0.76200
O1322       O  0.67429996  0.06689934  0.06069850    -1.12400
O1323       O  0.70899204  0.01007783  0.03842461    -0.71600
C1324       C  0.72716463  0.02384108  0.01370637     0.99200
C1325       C  0.65058898  0.14336175  0.06509018     0.95600
Al1326     Al  0.66457469  0.08470101  0.10542147     1.55600
O1327       O  0.66237936  0.08907647  0.99041942    -0.76200
C1328       C  0.68432790  0.02066248  0.12980850     0.99700
C1329       C  0.73301772  0.10882674  0.09528565     0.94600
O1330       O  0.73455076  0.09626766  0.06275438    -0.81500
O1331       O  0.99164128  0.42520102  0.14507444    -0.81000
C1332       C  0.91453021  0.04853841  0.12457862     0.98400
O1333       O  0.93162707  0.03196375  0.10092021    -0.70100
O1334       O  0.99684130  0.02475314  0.12485634    -0.73700
Al1335     Al  0.96481406  0.49323580  0.10328745     1.49000
C1336       C  0.52392013  0.01415696  0.14363031     0.93600
O1337       O  0.97921435  0.49520967  0.21603942    -0.79900
O1338       O  0.90240840  0.43785355  0.17672226    -0.73500
Al1339     Al  0.98408752  0.46113098  0.17945915     1.90100
O1340       O  0.92034305  0.99920440  0.21800976    -0.72500
O1341       O  0.88839487  0.47547977  0.11374409    -0.72400
O1342       O  0.90805981  0.03521993  0.15588636    -0.78000
O1343       O  0.93395183  0.46266484  0.08106031    -0.76200
O1344       O  0.95261593  0.48003756  0.14899169    -1.12400
O1345       O  0.99920943  0.45861458  0.09635635    -0.71600
C1346       C  0.00368919  0.43043218  0.11307314     0.99200
C1347       C  0.94930940  0.00491890  0.23442237     0.95600
Al1348     Al  0.90928869  0.48541780  0.16339177     1.55600
O1349       O  0.52254106  0.49105824  0.16338345    -0.76200
C1350       C  0.90185650  0.46491539  0.08366210     0.99700
C1351       C  0.92128539  0.42183286  0.20057073     0.94600
O1352       O  0.95274294  0.43033842  0.20518350    -0.81500
O1353       O  0.97612615  0.11854872  0.39355819    -0.81000
C1354       C  0.85213250  0.04581932  0.37143057     0.98400
O1355       O  0.86841339  0.06214099  0.34717384    -0.70100
O1356       O  0.87683101  0.12723083  0.36795964    -0.73700
Al1357     Al  0.90713997  0.09273040  0.35163607     1.49000
C1358       C  0.88829875  0.15334842  0.38544548     0.93600
O1359       O  0.90816194  0.10821853  0.46461400    -0.79900
O1360       O  0.96309219  0.03013689  0.42904856    -0.73500
Al1361     Al  0.94115192  0.11212378  0.42774385     1.90100
O1362       O  0.90562005  0.05144304  0.46516257    -0.72500
O1363       O  0.92396398  0.01623980  0.36579134    -0.72400
O1364       O  0.86619431  0.03940260  0.40324308    -0.78000
O1365       O  0.93656465  0.06095348  0.33125022    -0.76200
O1366       O  0.92094590  0.08079964  0.39827199    -1.12400
O1367       O  0.94220918  0.12591646  0.34362224    -0.71600
C1368       C  0.97085467  0.12948464  0.36057669     0.99200
C1369       C  0.90152231  0.08047640  0.48086788     0.95600
Al1370     Al  0.91508861  0.03782274  0.41438582     1.55600
O1371       O  0.91447041  0.15099759  0.40771817    -0.76200
C1372       C  0.93488442  0.02898693  0.33554150     0.99700
C1373       C  0.98079938  0.04936010  0.45118633     0.94600
O1374       O  0.97255230  0.08080383  0.45459495    -0.81500
O1375       O  0.55202703  0.17031148  0.39670268    -0.81000
C1376       C  0.67462956  0.24296452  0.37092426     0.98400
O1377       O  0.65850936  0.22245556  0.34937880    -0.70100
O1378       O  0.65204219  0.16154307  0.38130722    -0.73700
Al1379     Al  0.62100760  0.19183723  0.35701963     1.49000
C1380       C  0.64040409  0.13707257  0.40033297     0.93600
O1381       O  0.61806260  0.19230471  0.47290984    -0.79900
O1382       O  0.56521444  0.26255341  0.41995491    -0.73500
Al1383     Al  0.58656562  0.18229815  0.43302834     1.90100
O1384       O  0.62384469  0.24797842  0.46219939    -0.72500
O1385       O  0.60229157  0.26867873  0.35841532    -0.72400
O1386       O  0.66150242  0.25276896  0.40124994    -0.78000
O1387       O  0.59077076  0.21945942  0.32971957    -0.76200
O1388       O  0.60706930  0.20965733  0.40046170    -1.12400
O1389       O  0.58722515  0.15682649  0.35185704    -0.71600
C1390       C  0.55831015  0.15491026  0.36634866     0.99200
C1391       C  0.62655517  0.22219272  0.48376048     0.95600
Al1392     Al  0.61274122  0.25430502  0.40978139     1.55600
O1393       O  0.61435022  0.14155019  0.42079463    -0.76200
C1394       C  0.59165847  0.25175609  0.32972037     0.99700
C1395       C  0.54730184  0.24695172  0.44352548     0.94600
O1396       O  0.55477782  0.21629623  0.45251711    -0.81500
O1397       O  0.82666412  0.35394390  0.25096566    -0.81000
C1398       C  0.85976013  0.23435917  0.33166912     0.98400
O1399       O  0.86673331  0.24791132  0.30054816    -0.70100
O1400       O  0.85529894  0.28702615  0.23941343    -0.73700
Al1401     Al  0.86874078  0.29670173  0.29129432     1.49000
C1402       C  0.82615503  0.28309127  0.22262341     0.93600
O1403       O  0.75480218  0.29768683  0.29383231    -0.79900
O1404       O  0.77975358  0.32444619  0.35910268    -0.73500
Al1405     Al  0.79453459  0.32368161  0.27598577     1.90100
O1406       O  0.77885333  0.25944117  0.33175467    -0.72500
O1407       O  0.84451686  0.31872158  0.37429864    -0.72400
O1408       O  0.84314934  0.25100571  0.35551470    -0.78000
O1409       O  0.88990426  0.30547398  0.34159827    -0.76200
O1410       O  0.82555661  0.30317833  0.30578491    -1.12400
O1411       O  0.87703516  0.34430911  0.27853537    -0.71600
C1412       C  0.85840666  0.36133949  0.25529303     0.99200
C1413       C  0.75246129  0.27141385  0.31484124     0.95600
Al1414     Al  0.81294538  0.28952654  0.35117801     1.55600
O1415       O  0.79836041  0.29047219  0.23811932    -0.76200
C1416       C  0.87655851  0.31561896  0.37203811     0.99700
C1417       C  0.77626322  0.35316823  0.34355707     0.94600
O1418       O  0.78826710  0.35901517  0.31161174    -0.81500
O1419       O  0.67911531  0.43216476  0.25852407    -0.81000
C1420       C  0.66315640  0.05452474  0.34696031     0.98400
O1421       O  0.65221380  0.04118370  0.31638772    -0.70100
O1422       O  0.65637341  0.00428005  0.25399187    -0.70500
Al1423     Al  0.64145244  0.49050173  0.30222577     1.49000
C1424       C  0.68285041  0.00669677  0.23426351     0.93600
O1425       O  0.75447167  0.49217853  0.29401793    -0.79900
O1426       O  0.73940061  0.46516651  0.36191604    -0.73500
Al1427     Al  0.71343813  0.46428435  0.28015060     1.90100
O1428       O  0.74402668  0.02828980  0.33988361    -0.72500
O1429       O  0.67631921  0.46951868  0.38282538    -0.72400
O1430       O  0.68284830  0.03782610  0.36887763    -0.78000
O1431       O  0.62721478  0.48094766  0.35269484    -0.76200
O1432       O  0.68627979  0.48496283  0.31268961    -1.12400
O1433       O  0.63298040  0.44265131  0.29046400    -0.71600
C1434       C  0.64843765  0.42452765  0.26656575     0.99200
C1435       C  0.76795405  0.01616798  0.32056344     0.95600
Al1436     Al  0.70440150  0.49919450  0.35709526     1.55600
O1437       O  0.70337556  0.49553176  0.24172064    -0.76200
C1438       C  0.64389674  0.46995134  0.38141348     0.99700
C1439       C  0.74158015  0.43650345  0.34586770     0.94600
O1440       O  0.72545831  0.43017178  0.31529285    -0.81500
C1441       C  0.75490821  0.37878512  0.36079751    -0.15600
C1442       C  0.76544399  0.41115261  0.36067422    -0.30800
H1443       H  0.72759229  0.37279714  0.36236995     0.13400
H1444       H  0.79276911  0.41719037  0.35945550     0.14000
C1445       C  0.70894160  0.25547502  0.36014672    -0.15600
C1446       C  0.71833072  0.25742127  0.32385106    -0.30800
H1447       H  0.72651920  0.26470444  0.38244916     0.13400
H1448       H  0.69988191  0.25159214  0.30103059     0.14000
C1449       C  0.65335303  0.10197368  0.39300158    -0.15600
C1450       C  0.65301622  0.08999891  0.35713646    -0.30800
H1451       H  0.65951876  0.08500197  0.41645479     0.13400
H1452       H  0.64346170  0.10648149  0.33446937     0.14000
C1453       C  0.53263252  0.13227133  0.34959275    -0.15600
C1454       C  0.99791272  0.14859105  0.34330769    -0.30800
H1455       H  0.53636856  0.10491422  0.35479178     0.13400
H1456       H  0.99422613  0.17628415  0.34117655     0.14000
C1457       C  0.87134898  0.19897622  0.34092716    -0.15600
C1458       C  0.87350313  0.18749419  0.37680543    -0.30800
H1459       H  0.87989254  0.18255274  0.31818053     0.13400
H1460       H  0.86816818  0.20476111  0.40005584     0.14000
C1461       C  0.81627812  0.03433818  0.36255379    -0.15600
C1462       C  0.80343346  0.02965571  0.32697447    -0.30800
H1463       H  0.80026950  0.02813045  0.38611721     0.13400
H1464       H  0.81153881  0.53433745  0.29712410     0.14000
C1465       C  0.90707620  0.39366575  0.22474446    -0.15600
C1466       C  0.87301189  0.38949189  0.23139205    -0.30800
H1467       H  0.92559339  0.37691951  0.23919091     0.13400
H1468       H  0.85458688  0.40636046  0.21698330     0.14000
C1469       C  0.95048263  0.02288027  0.27029269    -0.15600
C1470       C  0.94231961  0.00742821  0.30265625    -0.30800
H1471       H  0.95592736  0.05028047  0.26923436     0.13400
H1472       H  0.93711751  0.97995042  0.30334495     0.14000
C1473       C  0.68814101  0.00305916  0.16591155    -0.15600
C1474       C  0.67905571  0.02077145  0.19674386    -0.30800
H1475       H  0.69684240  0.97648318  0.16751060     0.13400
H1476       H  0.66691288  0.04595392  0.19421058     0.14000
C1477       C  0.55842574  0.02838247  0.13604621    -0.15600
C1478       C  0.56783397  0.03334857  0.10015900    -0.30800
H1479       H  0.57757540  0.03018686  0.15900718     0.13400
H1480       H  0.54943923  0.02763045  0.07720230     0.14000
C1481       C  0.62947812  0.39503304  0.24725536    -0.15600
C1482       C  0.64052948  0.37852808  0.21598677    -0.30800
H1483       H  0.60473762  0.38775134  0.25826458     0.13400
H1484       H  0.66525739  0.38591547  0.20500656     0.14000
C1485       C  0.59374592  0.25238340  0.26250916    -0.15600
C1486       C  0.58409330  0.26869118  0.29388186    -0.30800
H1487       H  0.60737700  0.22791894  0.26405792     0.13400
H1488       H  0.57425297  0.29489031  0.29303417     0.14000
C1489       C  0.51304675  0.37416102  0.09678356    -0.15600
C1490       C  0.52598574  0.40566589  0.10086887    -0.30800
H1491       H  0.48538955  0.37031656  0.09282677     0.13400
H1492       H  0.55367163  0.40921973  0.10505259     0.14000
C1493       C  0.62724088  0.18904804  0.10496988    -0.15600
C1494       C  0.63765178  0.17906727  0.07052811    -0.30800
H1495       H  0.62968615  0.17107808  0.12825104     0.13400
H1496       H  0.63891923  0.19755036  0.04779947     0.14000
C1497       C  0.84085548  0.28250953  0.15582360    -0.15600
C1498       C  0.82428407  0.26864432  0.18485722    -0.30800
H1499       H  0.85326397  0.30751552  0.15843977     0.13400
H1500       H  0.81017291  0.24459772  0.18145962     0.14000
C1501       C  0.76911566  0.15451318  0.11675520    -0.15600
C1502       C  0.76482029  0.12068690  0.11348621    -0.30800
H1503       H  0.74650902  0.17115048  0.11595303     0.13400
H1504       H  0.78737814  0.10445878  0.10958594     0.14000
C1505       C  0.96485560  0.24449858  0.09426085    -0.15600
C1506       C  0.97838467  0.24888870  0.12958742    -0.30800
H1507       H  0.98060941  0.25048790  0.07043510     0.13400
H1508       H  0.96196870  0.24647737  0.15360555     0.14000
C1509       C  0.89349659  0.09467874  0.08079970    -0.15600
C1510       C  0.90229927  0.08395151  0.11594404    -0.30800
H1511       H  0.89355282  0.07657094  0.05739939     0.13400
H1512       H  0.89874496  0.10134347  0.13957759     0.14000
C1513       C  0.87286862  0.21642764  0.91212209    -0.15600
C1514       C  0.88848583  0.20003378  0.94125698    -0.30800
H1515       H  0.84771437  0.22838154  0.91503141     0.13400
H1516       H  0.91291339  0.18669886  0.93817405     0.14000
C1517       C  0.64983365  0.06820614  0.90857586    -0.15600
C1518       C  0.63463283  0.05871091  0.94067697    -0.30800
H1519       H  0.67646503  0.07681790  0.90850720     0.13400
H1520       H  0.60934463  0.04659345  0.93948550     0.14000
C1521       C  0.49404228  0.14426987  0.87475522    -0.15600
C1522       C  0.52743435  0.13747817  0.87334160    -0.30800
H1523       H  0.97697243  0.12592576  0.87142768     0.13400
H1524       H  0.54545453  0.15889962  0.87191038     0.14000
C1525       C  0.76991871  0.25623360  0.98272658    -0.15600
C1526       C  0.76202626  0.28995727  0.97793139    -0.30800
H1527       H  0.75448135  0.23743513  0.96692676     0.13400
H1528       H  0.77687078  0.30914794  0.99379364     0.14000
C1529       C  0.63281327  0.32774058  0.01531870    -0.15600
C1530       C  0.64942168  0.31522680  0.04593155    -0.30800
H1531       H  0.60653579  0.33736247  0.01631588     0.13400
H1532       H  0.67618402  0.30700275  0.04474174     0.14000
C1533       C  0.57053988  0.27661796  0.86441794    -0.15600
C1534       C  0.55788559  0.26793591  0.82988325    -0.30800
H1535       H  0.55460268  0.27285436  0.88866354     0.13400
H1536       H  0.57444331  0.26826795  0.80582265     0.14000
C1537       C  0.61653555  0.43151825  0.87560651    -0.15600
C1538       C  0.62062776  0.44583424  0.84158317    -0.30800
H1539       H  0.60440628  0.44595149  0.89788396     0.13400
H1540       H  0.63649712  0.43291666  0.82114605     0.14000
C1541       C  0.76862144  0.01316818  0.96225099    -0.15600
C1542       C  0.75375495  0.00280598  0.99425800    -0.30800
H1543       H  0.76135512  0.03800673  0.95047882     0.13400
H1544       H  0.76083138  0.97800991  0.00624415     0.14000
C1545       C  0.89467351  0.47271064  0.01726873    -0.15600
C1546       C  0.88153253  0.45965835  0.04875258    -0.30800
H1547       H  0.91794265  0.48836027  0.01886646     0.13400
H1548       H  0.85641335  0.44728877  0.04863641     0.14000
C1549       C  0.74534111  0.40225613  0.84632780    -0.15600
C1550       C  0.77701160  0.38928687  0.84543799    -0.30800
H1551       H  0.74171225  0.42993539  0.84884714     0.13400
H1552       H  0.78089470  0.36162559  0.84316173     0.14000
C1553       C  0.95939270  0.50469818  0.86211536    -0.15600
C1554       C  0.96698319  0.01365942  0.82827561    -0.30800
H1555       H  0.97739940  0.50929036  0.88569434     0.13400
H1556       H  0.94785517  0.01136026  0.80538406     0.14000
C1557       C  0.90546134  0.34142382  0.85189165    -0.15600
C1558       C  0.90144529  0.35209622  0.88778136    -0.30800
H1559       H  0.89898255  0.35878288  0.82881992     0.13400
H1560       H  0.90411000  0.33404591  0.91093617     0.14000
C1561       C  0.88293292  0.14926871  0.74479098    -0.15600
C1562       C  0.89669333  0.12878293  0.71790565    -0.30800
H1563       H  0.85637019  0.14505980  0.75240546     0.13400
H1564       H  0.92319865  0.13309485  0.71011728     0.14000
C1565       C  0.90439693  0.06503358  0.54731013    -0.15600
C1566       C  0.88872482  0.08204426  0.51866800    -0.30800
H1567       H  0.92940594  0.05288598  0.54398098     0.13400
H1568       H  0.86464280  0.09583843  0.52242080     0.14000
C1569       C  0.83870008  0.00327293  0.76167460    -0.15600
C1570       C  0.83398108  0.02002235  0.79436586    -0.30800
H1571       H  0.84799431  0.97686100  0.76146765     0.13400
H1572       H  0.82735055  0.54973211  0.79272873     0.14000
C1573       C  0.62152950  0.14197149  0.73527126    -0.15600
C1574       C  0.65533749  0.14730177  0.72929111    -0.30800
H1575       H  0.60272690  0.15877581  0.72135452     0.13400
H1576       H  0.67415211  0.13056761  0.74329562     0.14000
C1577       C  0.62729391  0.21629243  0.55350393    -0.15600
C1578       C  0.64147974  0.22746769  0.52149259    -0.30800
H1579       H  0.60193844  0.20446328  0.55347649     0.13400
H1580       H  0.66522898  0.24236255  0.52299419     0.14000
C1581       C  0.70768849  0.27284187  0.77118105    -0.15600
C1582       C  0.69886552  0.25697835  0.80309485    -0.30800
H1583       H  0.71359920  0.30016715  0.77084651     0.13400
H1584       H  0.69317437  0.22958583  0.80304954     0.14000
C1585       C  0.75207268  0.14516635  0.59566357    -0.15600
C1586       C  0.78566689  0.13871385  0.59472480    -0.30800
H1587       H  0.73428897  0.12361289  0.59751979     0.13400
H1588       H  0.80364685  0.16014043  0.59763274     0.14000
C1589       C  0.50237929  0.25462582  0.49260041    -0.15600
C1590       C  0.51845192  0.26585100  0.46163080    -0.30800
H1591       H  0.01168676  0.23373588  0.50273998     0.13400
H1592       H  0.51161965  0.29095687  0.45027421     0.14000
C1593       C  0.88164779  0.31157939  0.43973175    -0.15600
C1594       C  0.89683846  0.32028360  0.40741920    -0.30800
H1595       H  0.85614077  0.29993751  0.43893849     0.13400
H1596       H  0.92364064  0.32838120  0.40727216     0.14000
C1597       C  0.94235355  0.25491529  0.66334463    -0.15600
C1598       C  0.93888008  0.27276122  0.69565860    -0.30800
H1599       H  0.94563188  0.22712780  0.66353861     0.13400
H1600       H  0.93199414  0.29989436  0.69514269     0.14000
C1601       C  0.81101495  0.27380127  0.63416454    -0.15600
C1602       C  0.81939351  0.28255684  0.59889205    -0.30800
H1603       H  0.83072130  0.27343725  0.65660410     0.13400
H1604       H  0.80048092  0.27907013  0.57593102     0.14000
C1605       C  0.88458898  0.43173413  0.56970609    -0.15600
C1606       C  0.87415544  0.44201902  0.60407825    -0.30800
H1607       H  0.88613640  0.45025929  0.54703639     0.13400
H1608       H  0.87638504  0.42406135  0.62739147     0.14000
C1609       C  0.51370586  0.00131124  0.48594361    -0.15600
C1610       C  0.51025369  0.03396665  0.47296137    -0.30800
H1611       H  0.50148553  0.48377643  0.46471038     0.13400
H1612       H  0.52961909  0.05280388  0.48172174     0.14000
C1613       C  0.57385730  0.03422223  0.65765639    -0.15600
C1614       C  0.56980259  0.01690657  0.68992302    -0.30800
H1615       H  0.57805703  0.55869605  0.65715872     0.13400
H1616       H  0.57298268  0.98908924  0.69051213     0.14000
C1617       C  0.62588340  0.46092171  0.41542214    -0.15600
C1618       C  0.64408526  0.45355219  0.44704839    -0.30800
H1619       H  0.59811725  0.46485438  0.41610469     0.13400
H1620       H  0.67189821  0.45003269  0.44730321     0.14000
C1621       C  0.01368093  0.37639452  0.60961160    -0.15600
C1622       C  0.51787386  0.40270169  0.61624721    -0.30800
H1623       H  0.03678451  0.36114286  0.60498281     0.13400
H1624       H  0.49545370  0.41958954  0.61611623     0.14000
C1625       C  0.70944430  0.50165370  0.59741178    -0.15600
C1626       C  0.72076767  0.01748670  0.63008713    -0.30800
H1627       H  0.72516661  0.50561455  0.57304369     0.13400
H1628       H  0.70151243  0.03211024  0.64497785     0.14000
C1629       C  0.65731789  0.33772462  0.61817072    -0.15600
C1630       C  0.64695280  0.34799163  0.58327547    -0.30800
H1631       H  0.65439141  0.35527999  0.64177653     0.13400
H1632       H  0.64632026  0.32947476  0.56023248     0.14000
O1633       O  0.54482760  0.95769759  0.52012488    -0.81000
C1634       C  0.67346666  0.98594407  0.59649020     0.98400
O1635       O  0.65361476  0.00869827  0.58164488    -0.70100
O1636       O  0.63673647  0.99041768  0.51170549    -0.73700
Al1637     Al  0.60981896  0.00403687  0.55230161     1.49000
C1638       C  0.63004631  0.96756590  0.48724446     0.93600
O1639       O  0.62021365  0.89582529  0.54337218    -0.79900
O1640       O  0.56835805  0.93960506  0.62467873    -0.73500
Al1641     Al  0.58389098  0.92966340  0.53466505     1.90100
O1642       O  0.62283640  0.90102320  0.60427700    -0.72500
O1643       O  0.60992073  0.99180013  0.63511115    -0.72400
O1644       O  0.66206655  0.95648966  0.60445234    -0.78000
O1645       O  0.59955166  0.52332954  0.59415575    -0.76200
O1646       O  0.60267155  0.96065383  0.56609048    -1.12400
O1647       O  0.56239231  0.50874181  0.52889230    -0.71600
C1648       C  0.54398589  0.98882393  0.50995227     0.99200
C1649       C  0.62885619  0.88383580  0.57528172     0.95600
Al1650     Al  0.61478090  0.94832203  0.61298030     1.55600
O1651       O  0.60802304  0.94429267  0.49212734    -0.76200
C1652       C  0.59003910  0.51055579  0.62499797     0.99700
C1653       C  0.54903833  0.91963744  0.60553364     0.94600
O1654       O  0.55594927  0.91055239  0.57222933    -0.81500
O1655       O  0.96939877  0.80649797  0.50371001    -0.81000
C1656       C  0.85138841  0.79023474  0.58879060     0.98400
O1657       O  0.86404325  0.77929425  0.55872418    -0.70100
O1658       O  0.90075287  0.78235594  0.49758812    -0.73700
Al1659     Al  0.91198303  0.77355800  0.54979563     1.49000
C1660       C  0.89775112  0.80949496  0.47800330     0.93600
O1661       O  0.92100690  0.88732885  0.54328666    -0.79900
O1662       O  0.95065097  0.86483642  0.60973585    -0.73500
Al1663     Al  0.94285518  0.84337811  0.52735580     1.90100
O1664       O  0.88302388  0.86993455  0.58339593    -0.72500
O1665       O  0.93785095  0.80357497  0.63046720    -0.72400
O1666       O  0.86916873  0.80887100  0.61124050    -0.78000
O1667       O  0.92111138  0.75659710  0.60085846    -0.76200
O1668       O  0.92141573  0.81729287  0.56029331    -1.12400
O1669       O  0.95885359  0.76192246  0.53884833    -0.71600
C1670       C  0.97604928  0.77572092  0.51332365     0.99200
C1671       C  0.89572493  0.89374989  0.56443597     0.95600
Al1672     Al  0.91090336  0.83522063  0.60480216     1.55600
O1673       O  0.90777473  0.83849469  0.49025467    -0.76200
C1674       C  0.93348135  0.77167804  0.63001866     0.99700
C1675       C  0.97907042  0.86069839  0.59391383     0.94600
O1676       O  0.98035686  0.84856461  0.56116126    -0.81500
O1677       O  0.72975373  0.67385851  0.64777759    -0.81000
C1678       C  0.66243597  0.80015351  0.62277870     0.98400
O1679       O  0.67981300  0.78360434  0.59924693    -0.70100
O1680       O  0.74494012  0.77143306  0.62068557    -0.73700
Al1681     Al  0.70829264  0.74268068  0.60399362     1.49000
C1682       C  0.77065097  0.75975481  0.63907834     0.93600
O1683       O  0.72493687  0.74674657  0.71673980    -0.79900
O1684       O  0.64478567  0.69225559  0.68004410    -0.73500
Al1685     Al  0.72688187  0.71136393  0.68083384     1.90100
O1686       O  0.66796166  0.75128276  0.71613264    -0.72500
O1687       O  0.63049937  0.72900962  0.61616422    -0.72400
O1688       O  0.65536269  0.78682137  0.65388222    -0.78000
O1689       O  0.67490544  0.71469114  0.58282658    -0.76200
O1690       O  0.69601174  0.73152588  0.65034420    -1.12400
O1691       O  0.73830462  0.70403071  0.59688051    -0.71600
C1692       C  0.73740083  0.67557187  0.61375385     0.99200
C1693       C  0.69747013  0.75620393  0.73182105     0.95600
Al1694     Al  0.65316216  0.73914187  0.66529776     1.55600
O1695       O  0.76722421  0.73424747  0.66082697    -0.76200
C1696       C  0.64308319  0.71820091  0.58570269     0.99700
C1697       C  0.66376755  0.67575450  0.70330985     0.94600
O1698       O  0.69509826  0.68384560  0.70816124    -0.81500
O1699       O  0.80448035  0.60693759  0.64440053    -0.81000
C1700       C  0.86182073  0.97534505  0.61482618     0.98400
O1701       O  0.84477035  0.49527786  0.59156287    -0.70100
O1702       O  0.78219213  0.51020489  0.61663297    -0.73700
Al1703     Al  0.81835512  0.53738928  0.59846311     1.49000
C1704       C  0.75889863  0.52276285  0.63653030     0.93600
O1705       O  0.81329963  0.53406337  0.71212620    -0.79900
O1706       O  0.89070379  0.58527251  0.67028059    -0.73500
Al1707     Al  0.80912743  0.56933488  0.67675800     1.90100
O1708       O  0.86967404  0.52671735  0.70736025    -0.72500
O1709       O  0.89741395  0.54716616  0.60692210    -0.72400
O1710       O  0.87426162  0.49045269  0.64490182    -0.78000
O1711       O  0.85074725  0.56387835  0.57594819    -0.76200
O1712       O  0.83568275  0.54772757  0.64421573    -1.12400
O1713       O  0.78942028  0.57742863  0.59365241    -0.71600
C1714       C  0.79302925  0.60571514  0.61097950     0.99200
C1715       C  0.84197808  0.52323279  0.72495444     0.95600
Al1716     Al  0.87945116  0.53827169  0.65647966     1.55600
O1717       O  0.76568371  0.54797138  0.65854060    -0.76200
C1718       C  0.88266444  0.55938387  0.57762211     0.99700
C1719       C  0.87590757  0.60289776  0.69516945     0.94600
O1720       O  0.84517873  0.59576416  0.70317823    -0.81500
O1721       O  0.80173271  0.91966017  0.89349956    -0.81000
C1722       C  0.92462253  0.99244483  0.87305283     0.98400
O1723       O  0.90948821  0.97209491  0.85047464    -0.70100
O1724       O  0.90216473  0.91021839  0.88010460    -0.73700
Al1725     Al  0.87175017  0.94123566  0.85592228     1.49000
C1726       C  0.88999122  0.88523155  0.89788975     0.93600
O1727       O  0.86767511  0.93790131  0.97087798    -0.79900
O1728       O  0.81546430  0.51307847  0.91882385    -0.73500
Al1729     Al  0.83595277  0.92965532  0.93080393     1.90100
O1730       O  0.87288037  0.99408231  0.96269477    -0.72500
O1731       O  0.85316486  0.52076595  0.85781954    -0.72400
O1732       O  0.91067891  0.00131317  0.90312057    -0.78000
O1733       O  0.84230198  0.96960054  0.82843552    -0.76200
O1734       O  0.85689918  0.95787601  0.89949091    -1.12400
O1735       O  0.83758478  0.90667940  0.84893471    -0.71600
C1736       C  0.80804647  0.90582392  0.86220066     0.99200
C1737       C  0.87654124  0.96735895  0.98277846     0.95600
Al1738     Al  0.86281217  0.50442994  0.90877615     1.55600
O1739       O  0.86319399  0.88906599  0.91728792    -0.76200
C1740       C  0.84207872  0.50499147  0.82852862     0.99700
C1741       C  0.79693179  0.99407887  0.94348910     0.94600
O1742       O  0.80446438  0.96330679  0.95196681    -0.81500
O1743       O  0.72884477  0.87164828  0.89185817    -0.81000
C1744       C  0.60697628  0.79500885  0.87166206     0.98400
O1745       O  0.62222576  0.81165097  0.84678325    -0.70100
O1746       O  0.62919239  0.87739650  0.86655760    -0.73700
Al1747     Al  0.66030304  0.84349156  0.85038493     1.49000
C1748       C  0.63991587  0.90385512  0.88399247     0.93600
O1749       O  0.66071421  0.86031323  0.96270711    -0.79900
O1750       O  0.71859611  0.78361571  0.92821666    -0.73500
Al1751     Al  0.69401538  0.86465202  0.92618062     1.90100
O1752       O  0.66018888  0.80347952  0.96418516    -0.72500
O1753       O  0.67940618  0.76762026  0.86513566    -0.72400
O1754       O  0.62166425  0.78956864  0.90325923    -0.78000
O1755       O  0.69048045  0.81233068  0.83004787    -0.76200
O1756       O  0.67476684  0.83247523  0.89704377    -1.12400
O1757       O  0.69457056  0.87741096  0.84179234    -0.71600
C1758       C  0.72321461  0.88181127  0.85857514     0.99200
C1759       C  0.65396259  0.83255557  0.97887120     0.95600
Al1760     Al  0.67035173  0.78956239  0.91372304     1.55600
O1761       O  0.66650364  0.90247826  0.90569112    -0.76200
C1762       C  0.68912359  0.78036823  0.83433281     0.99700
C1763       C  0.73512983  0.80322358  0.95103400     0.94600
O1764       O  0.72599379  0.83446069  0.95401290    -0.81500
O1765       O  0.57615915  0.61290511  0.77164970    -0.81000
C1766       C  0.60819719  0.98452869  0.83242443     0.98400
O1767       O  0.63054044  0.50238685  0.81958306    -0.70100
O1768       O  0.61151104  0.52525083  0.75251076    -0.73700
Al1769     Al  0.62505657  0.54811740  0.79729668     1.49000
C1770       C  0.58734548  0.53212899  0.72907747     0.93600
O1771       O  0.51595726  0.53604744  0.78822920    -0.79900
O1772       O  0.56333532  0.58259782  0.87438437    -0.73500
Al1773     Al  0.54933532  0.57294107  0.78275289     1.90100
O1774       O  0.52396132  0.53036995  0.84860050    -0.72500
O1775       O  0.61543169  0.53913550  0.87885492    -0.72400
O1776       O  0.57951073  0.49098914  0.84297525    -0.78000
O1777       O  0.64337838  0.57252857  0.84193114    -0.76200
O1778       O  0.58180198  0.55271367  0.81153926    -1.12400
O1779       O  0.62797823  0.59076811  0.77061122    -0.71600
C1780       C  0.60725534  0.61487252  0.76245819     0.99200
C1781       C  0.50530455  0.52617652  0.81962335     0.95600
Al1782     Al  0.57133237  0.53719698  0.85707868     1.55600
O1783       O  0.56259590  0.55170622  0.73701331    -0.76200
C1784       C  0.63687352  0.56261534  0.87479686     0.99700
C1785       C  0.54272650  0.60313658  0.85784314     0.94600
O1786       O  0.53194281  0.59828484  0.82405769    -0.81500
O1787       O  0.93357491  0.68357015  0.75894760    -0.81000
C1788       C  0.91596500  0.80405714  0.84463051     0.98400
O1789       O  0.90594657  0.79170854  0.81321547    -0.70100
O1790       O  0.91149352  0.75422955  0.75135313    -0.73700
Al1791     Al  0.89940830  0.74384266  0.80199975     1.49000
C1792       C  0.93983004  0.75570763  0.73456689     0.93600
O1793       O  0.51888612  0.73145787  0.80275486    -0.79900
O1794       O  0.98654478  0.70464541  0.86950256    -0.73500
Al1795     Al  0.96939549  0.70982963  0.78590164     1.90100
O1796       O  0.50073905  0.76897587  0.84421131    -0.72500
O1797       O  0.92477463  0.71873493  0.88449832    -0.72400
O1798       O  0.93312361  0.78597180  0.86774945    -0.78000
O1799       O  0.87953984  0.73567672  0.85084748    -0.76200
O1800       O  0.94232662  0.73317511  0.81637377    -1.12400
O1801       O  0.88680570  0.69718595  0.78830914    -0.71600
C1802       C  0.90210004  0.67814858  0.76509339     0.99200
C1803       C  0.52455541  0.75693462  0.82474422     0.95600
Al1804     Al  0.95842800  0.74416430  0.86253705     1.55600
O1805       O  0.96757602  0.74386796  0.74877359    -0.76200
C1806       C  0.89284682  0.72276457  0.88062422     0.99700
C1807       C  0.98184219  0.67581036  0.85398833     0.94600
O1808       O  0.97153615  0.67329267  0.82020673    -0.81500
O1809       O  0.80444081  0.70985275  0.00632090    -0.81000
C1810       C  0.92900926  0.73507195  0.08752483     0.98400
O1811       O  0.91413232  0.74416924  0.05698028    -0.70100
O1812       O  0.87388236  0.73237258  0.99574226    -0.73700
Al1813     Al  0.86528337  0.74833217  0.04596399     1.49000
C1814       C  0.87489872  0.70269157  0.98059337     0.93600
O1815       O  0.85359652  0.63469256  0.05431592    -0.79900
O1816       O  0.83090024  0.66523569  0.11854008    -0.73500
Al1817     Al  0.83196655  0.67662787  0.03428081     1.90100
O1818       O  0.89552094  0.65439214  0.09109290    -0.72500
O1819       O  0.84724825  0.72760134  0.13115646    -0.72400
O1820       O  0.91294645  0.71774388  0.11108442    -0.78000
O1821       O  0.85793602  0.77122798  0.09413224    -0.76200
O1822       O  0.85626247  0.70609826  0.06274926    -1.12400
O1823       O  0.81774064  0.75985401  0.03081498    -0.71600
C1824       C  0.79881422  0.74179070  0.00867145     0.99200
C1825       C  0.88085082  0.62959436  0.07422010     0.95600
Al1826     Al  0.87053074  0.69260078  0.10876578     1.55600
O1827       O  0.86486736  0.67602700  0.99701027    -0.76200
C1828       C  0.84828434  0.75931862  0.12530215     0.99700
C1829       C  0.80125483  0.66669303  0.10301818     0.94600
O1830       O  0.79685250  0.67615725  0.06939844    -0.81500
O1831       O  0.55117577  0.85357943  0.14090213    -0.81000
C1832       C  0.62017070  0.72828455  0.11643253     0.98400
O1833       O  0.60131543  0.74439450  0.09290631    -0.70100
O1834       O  0.53778811  0.75450610  0.11788870    -0.73700
Al1835     Al  0.57161680  0.78398384  0.09852874     1.49000
C1836       C  0.51330666  0.76646363  0.13660242     0.93600
O1837       O  0.56626757  0.78478891  0.21269988    -0.79900
O1838       O  0.64106740  0.83762758  0.16994600    -0.73500
Al1839     Al  0.55975026  0.81800788  0.17550458     1.90100
O1840       O  0.62272515  0.77923031  0.20799194    -0.72500
O1841       O  0.64937371  0.79944075  0.10793828    -0.72400
O1842       O  0.62912620  0.74209306  0.14734010    -0.78000
O1843       O  0.60231397  0.81257372  0.07496292    -0.76200
O1844       O  0.58784647  0.79710907  0.14408288    -1.12400
O1845       O  0.53846833  0.82010666  0.09240780    -0.71600
C1846       C  0.53635254  0.84852857  0.10926034     0.99200
C1847       C  0.59526826  0.77514677  0.22563594     0.95600
Al1848     Al  0.63192043  0.79021077  0.15721782     1.55600
O1849       O  0.51824012  0.79242040  0.15819361    -0.76200
C1850       C  0.63461524  0.81104378  0.07835073     0.99700
C1851       C  0.62550889  0.85521986  0.19419452     0.94600
O1852       O  0.59436311  0.84805694  0.20086918    -0.81500
O1853       O  0.72423659  0.55885770  0.00599857    -0.81000
C1854       C  0.60382418  0.54659878  0.08858352     0.98400
O1855       O  0.61496334  0.53770780  0.05696717    -0.70100
O1856       O  0.65254616  0.54166400  0.99631663    -0.73700
Al1857     Al  0.66237093  0.52808423  0.04743834     1.49000
C1858       C  0.65260977  0.57015086  0.97894601     0.93600
O1859       O  0.68132191  0.63988438  0.04971584    -0.79900
O1860       O  0.70769043  0.61203170  0.11487291    -0.73500
Al1861     Al  0.70045505  0.59598588  0.03144900     1.90100
O1862       O  0.64164702  0.62309191  0.08851465    -0.72500
O1863       O  0.69137270  0.55014489  0.12986999    -0.72400
O1864       O  0.62342358  0.56180758  0.11224903    -0.78000
O1865       O  0.66921544  0.50706516  0.09693771    -0.76200
O1866       O  0.67600788  0.56980164  0.06163721    -1.12400
O1867       O  0.70796739  0.51273168  0.03569552    -0.71600
C1868       C  0.72752531  0.52700788  0.01266127     0.99200
C1869       C  0.65557455  0.64656433  0.06999338     0.95600
Al1870     Al  0.66669216  0.58541991  0.10739921     1.55600
O1871       O  0.66615430  0.59685605  0.99311750    -0.76200
C1872       C  0.68270015  0.51919561  0.12717819     0.99700
C1873       C  0.73621021  0.60739865  0.09964338     0.94600
O1874       O  0.73771643  0.59606202  0.06658011    -0.81500
O1875       O  0.98946040  0.92572054  0.14952009    -0.81000
C1876       C  0.91617772  0.54760081  0.12243438     0.98400
O1877       O  0.93299470  0.53138865  0.09821568    -0.70100
O1878       O  0.99838203  0.52467723  0.12187510    -0.73700
Al1879     Al  0.96295216  0.99353063  0.10669337     1.49000
C1880       C  0.52460211  0.51657721  0.14133463     0.93600
O1881       O  0.97730054  0.99648030  0.22001100    -0.79900
O1882       O  0.90010761  0.93964061  0.18148158    -0.73500
Al1883     Al  0.98200166  0.96213155  0.18351234     1.90100
O1884       O  0.92223513  0.49617772  0.21468609    -0.72500
O1885       O  0.88628978  0.97600076  0.11722229    -0.72400
O1886       O  0.91009265  0.53385487  0.15363013    -0.78000
O1887       O  0.93181789  0.96315969  0.08455606    -0.76200
O1888       O  0.95060911  0.98100305  0.15266647    -1.12400
O1889       O  0.99694308  0.95851892  0.10030948    -0.71600
C1890       C  0.00167332  0.93065047  0.11753705     0.99200
C1891       C  0.95114210  0.50190179  0.23116495     0.95600
Al1892     Al  0.90726290  0.98695644  0.16688296     1.55600
O1893       O  0.52127732  0.98739235  0.16384505    -0.76200
C1894       C  0.89971754  0.96540120  0.08707091     0.99700
C1895       C  0.91909839  0.92341256  0.20504914     0.94600
O1896       O  0.95056382  0.93183597  0.20950928    -0.81500
O1897       O  0.97571507  0.60589166  0.38964451    -0.81000
C1898       C  0.84435134  0.54747687  0.36520684     0.98400
O1899       O  0.86190470  0.56329322  0.34152877    -0.70100
O1900       O  0.87746205  0.62625912  0.36570744    -0.73700
Al1901     Al  0.90390108  0.58979900  0.34715870     1.49000
C1902       C  0.89160207  0.65059991  0.38398165     0.93600
O1903       O  0.90721052  0.60106544  0.46048551    -0.79900
O1904       O  0.95362028  0.51982771  0.41937364    -0.73500
Al1905     Al  0.94035597  0.60252600  0.42386337     1.90100
O1906       O  0.89845352  0.54487801  0.45827724    -0.72500
O1907       O  0.91274039  0.51175531  0.35764846    -0.72400
O1908       O  0.85793515  0.53896880  0.39663017    -0.78000
O1909       O  0.92969092  0.55613898  0.32488320    -0.76200
O1910       O  0.91656601  0.57481477  0.39297694    -1.12400
O1911       O  0.94257159  0.61952552  0.34073738    -0.71600
C1912       C  0.97157919  0.61927402  0.35759525     0.99200
C1913       C  0.89698681  0.57369034  0.47505486     0.95600
Al1914     Al  0.90642728  0.53229323  0.40688640     1.55600
O1915       O  0.91785979  0.64502147  0.40556192    -0.76200
C1916       C  0.92575057  0.52430731  0.32847672     0.99700
C1917       C  0.97348195  0.53508360  0.44298189     0.94600
O1918       O  0.96839203  0.56678325  0.44991448    -0.81500
O1919       O  0.54533071  0.67567818  0.39050454    -0.81000
C1920       C  0.67349522  0.74039745  0.37091228     0.98400
O1921       O  0.65679870  0.72111399  0.34852558    -0.70100
O1922       O  0.64509656  0.65996876  0.37795406    -0.73700
Al1923     Al  0.61698830  0.69307204  0.35391750     1.49000
C1924       C  0.63127984  0.63587451  0.39573488     0.93600
O1925       O  0.61128756  0.69035731  0.46909959    -0.79900
O1926       O  0.56423334  0.76572318  0.41818162    -0.73500
Al1927     Al  0.57984642  0.68387208  0.42831385     1.90100
O1928       O  0.62117528  0.74583657  0.46058021    -0.72500
O1929       O  0.60273070  0.77108878  0.35779764    -0.72400
O1930       O  0.66012563  0.75049040  0.40097560    -0.78000
O1931       O  0.58958730  0.72340839  0.32675954    -0.76200
O1932       O  0.60305659  0.71068499  0.39744304    -1.12400
O1933       O  0.58093985  0.66080104  0.34652164    -0.71600
C1934       C  0.55144403  0.66070184  0.35978701     0.99200
C1935       C  0.62202240  0.71921749  0.48099422     0.95600
Al1936     Al  0.61135245  0.75462342  0.40855533     1.55600
O1937       O  0.60480015  0.64152509  0.41520016    -0.76200
C1938       C  0.59198841  0.75560535  0.32823171     0.99700
C1939       C  0.54509378  0.75076962  0.44104840     0.94600
O1940       O  0.55028291  0.71939508  0.44877435    -0.81500
O1941       O  0.82557745  0.85230684  0.25331317    -0.81000
C1942       C  0.86134019  0.73287535  0.33303306     0.98400
O1943       O  0.86749978  0.74669850  0.30181498    -0.70100
O1944       O  0.85530296  0.78608038  0.24106046    -0.73700
Al1945     Al  0.86873010  0.79553134  0.29298361     1.49000
C1946       C  0.82617981  0.78155758  0.22442526     0.93600
O1947       O  0.75501200  0.79430747  0.29597586    -0.79900
O1948       O  0.77959236  0.82138605  0.36145630    -0.73500
Al1949     Al  0.79406161  0.82117662  0.27815408     1.90100
O1950       O  0.77950590  0.75643892  0.33413207    -0.72500
O1951       O  0.84450797  0.81703068  0.37583303    -0.72400
O1952       O  0.84462472  0.74902055  0.35725003    -0.78000
O1953       O  0.88999478  0.80413323  0.34318273    -0.76200
O1954       O  0.82549421  0.80108113  0.30771681    -1.12400
O1955       O  0.87612074  0.84342700  0.28081965    -0.71600
C1956       C  0.85713570  0.86041401  0.25788293     0.99200
C1957       C  0.75299885  0.76798474  0.31696350     0.95600
Al1958     Al  0.81339979  0.78710267  0.35318864     1.55600
O1959       O  0.79833139  0.78827885  0.24010086    -0.76200
C1960       C  0.87654438  0.81406710  0.37360754     0.99700
C1961       C  0.77567813  0.85008242  0.34596606     0.94600
O1962       O  0.78725474  0.85610682  0.31388923    -0.81500
O1963       O  0.68518283  0.93440736  0.26032959    -0.81000
C1964       C  0.65361406  0.55299875  0.34258639     0.98400
O1965       O  0.64327631  0.53919594  0.31198924    -0.70100
O1966       O  0.64742129  0.50072092  0.25031782    -0.70500
Al1967     Al  0.64905322  0.99281651  0.30536952     1.49000
C1968       C  0.67339043  0.50318884  0.22987349     0.93600
O1969       O  0.76242658  0.99029627  0.29902178    -0.79900
O1970       O  0.74495733  0.96313765  0.36590877    -0.73500
Al1971     Al  0.72040333  0.96459713  0.28373309     1.90100
O1972       O  0.73541284  0.52984687  0.33494131    -0.72500
O1973       O  0.68225499  0.97017138  0.38636450    -0.72400
O1974       O  0.67389484  0.53707466  0.36462515    -0.78000
O1975       O  0.63375289  0.98243207  0.35542811    -0.76200
O1976       O  0.69352941  0.98567158  0.31635532    -1.12400
O1977       O  0.63909940  0.94556211  0.29200099    -0.71600
C1978       C  0.65413503  0.92762484  0.26762676     0.99200
C1979       C  0.75944108  0.51844582  0.31517766     0.95600
Al1980     Al  0.71168210  0.99875559  0.36118632     1.55600
O1981       O  0.71229747  0.99720875  0.24611053    -0.76200
C1982       C  0.64988844  0.97141649  0.38453479     0.99700
C1983       C  0.74577752  0.93449967  0.34960093     0.94600
O1984       O  0.73031419  0.92938082  0.31832055    -0.81500
C1985       C  0.75496412  0.87585001  0.36372774    -0.15600
C1986       C  0.76727555  0.90758148  0.36529794    -0.30800
H1987       H  0.72725588  0.87139479  0.36305618     0.13400
H1988       H  0.79496726  0.91212050  0.36613362     0.14000
C1989       C  0.70865355  0.75150819  0.36128145    -0.15600
C1990       C  0.71890427  0.75343643  0.32529335    -0.30800
H1991       H  0.72588946  0.76040890  0.38406064     0.13400
H1992       H  0.70074396  0.74807478  0.30205439     0.14000
C1993       C  0.64284216  0.60028877  0.38847403    -0.15600
C1994       C  0.64235268  0.58817155  0.35266010    -0.30800
H1995       H  0.64944556  0.58354619  0.41200100     0.13400
H1996       H  0.63267304  0.60454474  0.32995239     0.14000
C1997       C  0.52501158  0.63998895  0.34129768    -0.15600
C1998       C  0.00016291  0.63789052  0.34220280    -0.30800
H1999       H  0.52977791  0.61238414  0.34049377     0.13400
H2000       H  0.99554106  0.66428171  0.33326941     0.14000
C2001       C  0.87349437  0.69751361  0.34152100    -0.15600
C2002       C  0.87923836  0.68611920  0.37711159    -0.30800
H2003       H  0.87883303  0.68062165  0.31791944     0.13400
H2004       H  0.87721363  0.70366204  0.40085315     0.14000
C2005       C  0.80772524  0.53843729  0.35629244    -0.15600
C2006       C  0.79474321  0.53287389  0.32091557    -0.30800
H2007       H  0.79151993  0.53325332  0.37998984     0.13400
H2008       H  0.82001837  0.03250589  0.30315776     0.14000
C2009       C  0.90519871  0.89475870  0.22881222    -0.15600
C2010       C  0.87116021  0.88935929  0.23463562    -0.30800
H2011       H  0.92396125  0.87839353  0.24339644     0.13400
H2012       H  0.85242832  0.90576935  0.22005915     0.14000
C2013       C  0.95212694  0.51651219  0.26862657    -0.15600
C2014       C  0.93354759  0.50289375  0.29602722    -0.30800
H2015       H  0.96688635  0.54004031  0.27311170     0.13400
H2016       H  0.92054143  0.47828620  0.29213647     0.14000
C2017       C  0.68359582  0.50008272  0.16229431    -0.15600
C2018       C  0.66844228  0.51530100  0.19159887    -0.30800
H2019       H  0.69783019  0.47609381  0.16508420     0.13400
H2020       H  0.65212458  0.53783884  0.18730536     0.14000
C2021       C  0.55868720  0.53187595  0.13399814    -0.15600
C2022       C  0.56799073  0.53798667  0.09829741    -0.30800
H2023       H  0.57789399  0.53323416  0.15692497     0.13400
H2024       H  0.54962811  0.53288721  0.07516493     0.14000
C2025       C  0.63434583  0.89931164  0.24705165    -0.15600
C2026       C  0.64495435  0.88353521  0.21512848    -0.30800
H2027       H  0.60946288  0.89222066  0.25783651     0.13400
H2028       H  0.66985636  0.89070783  0.20443255     0.14000
C2029       C  0.59758626  0.75869090  0.26183361    -0.15600
C2030       C  0.58615068  0.77391382  0.29300649    -0.30800
H2031       H  0.61184090  0.73456525  0.26342527     0.13400
H2032       H  0.57556027  0.79982899  0.29255728     0.14000
C2033       C  0.51342993  0.87490192  0.09435822    -0.15600
C2034       C  0.52379916  0.90735580  0.09688993    -0.30800
H2035       H  0.48605516  0.86880604  0.09264861     0.13400
H2036       H  0.55120508  0.91336496  0.09828100     0.14000
C2037       C  0.63155092  0.69277999  0.10845004    -0.15600
C2038       C  0.64290990  0.68230317  0.07471209    -0.30800
H2039       H  0.63301542  0.67518829  0.13213321     0.13400
H2040       H  0.64508280  0.70052867  0.05183607     0.14000
C2041       C  0.84075811  0.78136644  0.15767255    -0.15600
C2042       C  0.82444453  0.76715454  0.18665549    -0.30800
H2043       H  0.85252249  0.80668156  0.16024313     0.13400
H2044       H  0.81094293  0.74275834  0.18326520     0.14000
C2045       C  0.77182270  0.65279998  0.12172203    -0.15600
C2046       C  0.76792663  0.61892861  0.11819622    -0.30800
H2047       H  0.74897841  0.66910904  0.12185491     0.13400
H2048       H  0.79059831  0.60305068  0.11360407     0.14000
C2049       C  0.96556875  0.74500076  0.09586602    -0.15600
C2050       C  0.97901450  0.74889001  0.13134967    -0.30800
H2051       H  0.98125248  0.75168658  0.07220545     0.13400
H2052       H  0.96258159  0.74576000  0.15525305     0.14000
C2053       C  0.89440585  0.59421060  0.07982955    -0.15600
C2054       C  0.90379176  0.58305797  0.11461007    -0.30800
H2055       H  0.89409315  0.57644417  0.05610701     0.13400
H2056       H  0.90055953  0.60011315  0.13860830     0.14000
C2057       C  0.87250654  0.71554194  0.91364953    -0.15600
C2058       C  0.88785034  0.69926771  0.94301898    -0.30800
H2059       H  0.84751656  0.72787513  0.91635856     0.13400
H2060       H  0.91216825  0.68567326  0.94024110     0.14000
C2061       C  0.65294387  0.57662805  0.90978527    -0.15600
C2062       C  0.63584502  0.57135151  0.94188115    -0.30800
H2063       H  0.67898103  0.58691696  0.91017245     0.13400
H2064       H  0.60998049  0.56055361  0.94071199     0.14000
C2065       C  0.49745574  0.64188416  0.87015660    -0.15600
C2066       C  0.53041763  0.63376998  0.87708689    -0.30800
H2067       H  0.97502699  0.62295544  0.86954560     0.13400
H2068       H  0.54929123  0.65381075  0.88340293     0.14000
C2069       C  0.76983273  0.75644722  0.98415255    -0.15600
C2070       C  0.76477572  0.79018216  0.97580561    -0.30800
H2071       H  0.75241699  0.73781992  0.97081698     0.13400
H2072       H  0.78176764  0.80915817  0.98916161     0.14000
C2073       C  0.63863746  0.83398389  0.01545914    -0.15600
C2074       C  0.65453904  0.81954907  0.04546591    -0.30800
H2075       H  0.61290722  0.84491021  0.01705491     0.13400
H2076       H  0.68084279  0.81004537  0.04383837     0.14000
C2077       C  0.57157299  0.78191878  0.86413224    -0.15600
C2078       C  0.55973318  0.77155138  0.82973781    -0.30800
H2079       H  0.55531447  0.77873482  0.88821449     0.13400
H2080       H  0.57680980  0.77135675  0.80611128     0.14000
C2081       C  0.62357965  0.93741529  0.87628750    -0.15600
C2082       C  0.61969916  0.94899088  0.84065174    -0.30800
H2083       H  0.61914331  0.95458454  0.89988420     0.13400
H2084       H  0.62757681  0.93285922  0.81735440     0.14000
C2085       C  0.77031034  0.51721237  0.96227150    -0.15600
C2086       C  0.75396359  0.50594179  0.99299601    -0.30800
H2087       H  0.76424828  0.54275502  0.95159591     0.13400
H2088       H  0.75961933  0.48032893  0.00368111     0.14000
C2089       C  0.89298167  0.97106793  0.01996438    -0.15600
C2090       C  0.87934735  0.95958777  0.05203092    -0.30800
H2091       H  0.91679340  0.98589125  0.02114342     0.13400
H2092       H  0.85381807  0.94811950  0.05225053     0.14000
C2093       C  0.75000837  0.90061921  0.84046371    -0.15600
C2094       C  0.78122959  0.88667979  0.84232782    -0.30800
H2095       H  0.74717468  0.92848020  0.84041160     0.13400
H2096       H  0.78416734  0.85881515  0.84222709     0.14000
C2097       C  0.95870184  0.00613963  0.86388544    -0.15600
C2098       C  0.96836472  0.51329534  0.82707333    -0.30800
H2099       H  0.97676341  0.01204149  0.88705103     0.13400
H2100       H  0.94937949  0.51252654  0.80391595     0.14000
C2101       C  0.90712659  0.83982427  0.85467031    -0.15600
C2102       C  0.90357642  0.85042678  0.89063792    -0.30800
H2103       H  0.90072862  0.85735461  0.83172735     0.13400
H2104       H  0.90617073  0.83226080  0.91369289     0.14000
C2105       C  0.88258099  0.64981759  0.74467513    -0.15600
C2106       C  0.89526383  0.63138214  0.71550931    -0.30800
H2107       H  0.85658169  0.64449745  0.75352784     0.13400
H2108       H  0.92117149  0.63690612  0.70649402     0.14000
C2109       C  0.90113815  0.56530286  0.54292217    -0.15600
C2110       C  0.88290202  0.57545818  0.51207574    -0.30800
H2111       H  0.92799527  0.55758424  0.54116386     0.13400
H2112       H  0.85611352  0.58348552  0.51335171     0.14000
C2113       C  0.84369595  0.50646168  0.76116076    -0.15600
C2114       C  0.83545859  0.52294376  0.79300208    -0.30800
H2115       H  0.85559612  0.48109969  0.76210047     0.13400
H2116       H  0.82829077  0.04742755  0.79474866     0.14000
C2117       C  0.61895141  0.64502782  0.74016151    -0.15600
C2118       C  0.65064903  0.64636184  0.72547427    -0.30800
H2119       H  0.60081144  0.66588720  0.73458248     0.13400
H2120       H  0.66906256  0.62603534  0.73233451     0.14000
C2121       C  0.62251671  0.71315001  0.55061162    -0.15600
C2122       C  0.63773196  0.72233531  0.51847955    -0.30800
H2123       H  0.59612159  0.70385868  0.55070500     0.13400
H2124       H  0.66266784  0.73516743  0.51967391     0.14000
C2125       C  0.69977710  0.77450730  0.76756061    -0.15600
C2126       C  0.69528255  0.75888838  0.80088845    -0.30800
H2127       H  0.70241696  0.80228049  0.76569332     0.13400
H2128       H  0.69202969  0.73114608  0.80230689     0.14000
C2129       C  0.74758217  0.64396614  0.59524967    -0.15600
C2130       C  0.78119106  0.63772823  0.59418837    -0.30800
H2131       H  0.72999328  0.62232292  0.59770239     0.13400
H2132       H  0.79902047  0.65931625  0.59657698     0.14000
C2133       C  0.50200457  0.76056145  0.49144639    -0.15600
C2134       C  0.51744213  0.77101066  0.45977284    -0.30800
H2135       H  0.01099896  0.73068396  0.50711248     0.13400
H2136       H  0.51101043  0.79616321  0.44829295     0.14000
C2137       C  0.88169752  0.80680282  0.44062123    -0.15600
C2138       C  0.89651472  0.81815338  0.40912865    -0.30800
H2139       H  0.85730952  0.79298971  0.43874740     0.13400
H2140       H  0.92251482  0.82856847  0.40973875     0.14000
C2141       C  0.93994352  0.75346452  0.66569274    -0.15600
C2142       C  0.94012482  0.77190557  0.69795021    -0.30800
H2143       H  0.94085494  0.72550187  0.66619333     0.13400
H2144       H  0.93626942  0.79961552  0.69768770     0.14000
C2145       C  0.80539736  0.77411105  0.63278178    -0.15600
C2146       C  0.81555078  0.78065488  0.59754439    -0.30800
H2147       H  0.82402068  0.77534930  0.65627074     0.13400
H2148       H  0.79776938  0.77554684  0.57389078     0.14000
C2149       C  0.88271492  0.92958709  0.57031421    -0.15600
C2150       C  0.87133007  0.93943618  0.60452501    -0.30800
H2151       H  0.88547269  0.94854664  0.54826907     0.13400
H2152       H  0.87235426  0.92096584  0.62740719     0.14000
C2153       C  0.51721833  0.50303300  0.47936858    -0.15600
C2154       C  0.51024815  0.53670165  0.47227787    -0.30800
H2155       H  0.49362185  0.98277986  0.47855663     0.13400
H2156       H  0.52598239  0.55596682  0.48692545     0.14000
C2157       C  0.58337168  0.53128393  0.65893749    -0.15600
C2158       C  0.58806554  0.51535814  0.69252499    -0.30800
H2159       H  0.57106330  0.06202441  0.65636320     0.13400
H2160       H  0.59687371  0.48878397  0.69374603     0.14000
C2161       C  0.63164353  0.96311643  0.41868919    -0.15600
C2162       C  0.64793293  0.96889997  0.45207540    -0.30800
H2163       H  0.60441124  0.95650067  0.41697125     0.13400
H2164       H  0.67404397  0.97914123  0.45340809     0.14000
C2165       C  0.01147822  0.87087977  0.61217261    -0.15600
C2166       C  0.51770962  0.90584414  0.62118493    -0.30800
H2167       H  0.03344791  0.85470431  0.60546174     0.13400
H2168       H  0.49688520  0.92379781  0.62652821     0.14000
C2169       C  0.71034447  0.99346762  0.60469667    -0.15600
C2170       C  0.72298315  0.50942031  0.63198062    -0.30800
H2171       H  0.72929058  0.97777902  0.59064412     0.13400
H2172       H  0.70665071  0.50908024  0.65622704     0.14000
C2173       C  0.64948432  0.83536004  0.61468387    -0.15600
C2174       C  0.64520893  0.84924986  0.57991927    -0.30800
H2175       H  0.64081318  0.84974557  0.63893412     0.13400
H2176       H  0.65224520  0.83468097  0.55514158     0.14000
loop_ 
_geom_bond_atom_site_label_1 
_geom_bond_atom_site_label_2 
_geom_bond_distance 
_geom_bond_site_symmetry_2 
_ccdc_geom_bond_type 
O1           C16   1.269       .  A
O1           Al9   1.976       .  S
C2           O12   1.264       .  A
C2            O3   1.259       .  A
C2          C537   1.481       .  S
O3           Al5   1.901       .  S
O4            C6   1.266       .  A
O4           Al5   1.906       .  S
Al5         O557   1.937       .  S
Al5         O559   1.931       .  S
Al5          O14   1.777       .  S
C6           O19   1.259       .  A
C6          C530   1.441       .  S
O7           C17   1.276       .  A
O7           Al9   1.986       .  S
O8           C21   1.263       .  A
O8          Al18   1.917       .  S
Al9          O22   1.871       .  S
Al9          O19   1.868       .  S
Al9          O14   1.779       .  S
O10          C17   1.260       .  A
O10         Al18   1.890       .  S
O11         C564   1.251       .  A
O11         Al18   1.838       .  S
O12         Al18   1.940       .  S
O13          C20   1.261       .  A
O13        Al549   1.923       .  S
O14         Al18   1.788       .  S
O15         C560   1.266   1_545  A
O15        Al549   1.954       .  S
C16         O559   1.265       .  A
C16        C1065   1.517       .  S
C17         C542   1.500       .  S
C20         O555   1.254   1_545  A
C20         C525   1.463       .  S
C21          O22   1.257       .  A
C21         C534   1.446       .  S
O23          C38   1.267       .  A
O23         Al31   1.947       .  S
C24          O34   1.262       .  A
C24          O25   1.261       .  A
C24         C514   1.475       .  S
O25         Al27   1.905       .  S
O26          C28   1.268       .  A
O26         Al27   1.923       .  S
Al27         O35   1.964       .  S
Al27         O37   1.924       .  S
Al27         O36   1.773       .  S
C28          O41   1.262       .  A
C28         C505   1.454       .  S
O29          C39   1.276       .  A
O29         Al31   1.981       .  S
O30          C43   1.260       .  A
O30         Al40   1.912       .  S
Al31         O44   1.873       .  S
Al31         O41   1.877       .  S
Al31         O36   1.777       .  S
O32          C39   1.258       .  A
O32         Al40   1.876       .  S
O33          C42   1.251       .  A
O33         Al40   1.845       .  S
O34         Al40   1.926       .  S
O35          C42   1.270       .  A
O36         Al40   1.782       .  S
O37          C38   1.266       .  A
C38        C1589   1.499       .  S
C39         C517   1.491       .  S
C42         C509   1.474       .  S
C43          O44   1.255       .  A
C43         C533   1.448       .  S
O45          C60   1.257       .  A
O45         Al53   1.872       .  S
C46          O56   1.266       .  A
C46          O47   1.265       .  A
C46         C541   1.497       .  S
O47         Al49   1.949       .  S
O48          C50   1.260       .  A
O48         Al49   1.885       .  S
Al49         O57   1.825       .  S
Al49         O59   1.923       .  S
Al49         O58   1.780       .  S
C50          O63   1.268       .  A
C50         C513   1.475       .  S
O51          C61   1.258       .  A
O51         Al53   1.865       .  S
O52          C65   1.270       .  A
O52         Al62   1.949       .  S
Al53         O66   1.929       .  S
Al53         O63   1.946       .  S
Al53         O58   1.772       .  S
O54          C61   1.272       .  A
O54         Al62   1.937       .  S
O55          C64   1.272       .  A
O55         Al62   1.972       .  S
O56         Al62   1.927       .  S
O57          C64   1.247       .  A
O58         Al62   1.780       .  S
O59          C60   1.262       .  A
C60         C497   1.449       .  S
C61         C493   1.447       .  S
C64         C489   1.468       .  S
C65          O66   1.262       .  A
C65         C486   1.505       .  S
O67          C82   1.256       .  A
O67         Al75   1.869       .  S
C68         O622   1.261       .  A
C68         O613   1.264       .  A
C68         C518   1.484       .  S
O69         C612   1.263       .  A
O69         Al71   1.939   1_565  S
O70          C72   1.261       .  A
O70         Al71   1.896       .  S
Al71         O79   1.837       .  S
Al71         O81   1.928       .  S
Al71         O80   1.781       .  S
C72          O85   1.271       .  A
C72         C538   1.491       .  S
O73          C83   1.263       .  A
O73         Al75   1.874       .  S
O74          C87   1.265       .  A
O74         Al84   1.929       .  S
Al75         O88   1.940       .  S
Al75         O85   1.965       .  S
Al75         O80   1.779       .  S
O76          C83   1.268       .  A
O76         Al84   1.916       .  S
O77          C86   1.266       .  A
O77         Al84   1.942       .  S
O78         C612   1.260       .  A
O78         Al84   1.901   1_565  S
O79          C86   1.251       .  A
O80         Al84   1.773       .  S
O81          C82   1.265       .  A
C82         C498   1.450       .  S
C83         C481   1.448       .  S
C86         C477   1.463       .  S
C87          O88   1.263       .  A
C87         C474   1.500       .  S
O89         C104   1.261       .  A
O89         Al97   1.882       .  S
C90         O100   1.261       .  A
C90          O91   1.260       .  A
C90         C465   1.476       .  S
O91         Al93   1.931       .  S
O92          C94   1.261       .  A
O92         Al93   1.876       .  S
Al93        O101   1.846       .  S
Al93        O103   1.905       .  S
Al93        O102   1.786       .  S
C94         O107   1.274       .  A
C94         C470   1.478       .  S
O95         C105   1.260       .  A
O95         Al97   1.874       .  S
O96         C653   1.261   1_545  A
O96        Al106   1.908   1_545  S
Al97        O110   1.962       .  S
Al97        O107   1.967       .  S
Al97        O102   1.779       .  S
O98         C105   1.266       .  A
O98        Al650   1.917       .  S
O99         C108   1.267       .  A
O99        Al106   1.941   1_545  S
O100       Al650   1.901       .  S
O101        C652   1.253       .  A
O102       Al650   1.773       .  S
O103        C104   1.255       .  A
C104        C462   1.445       .  S
C105        C457   1.453   1_556  S
Al106       O642   1.914       .  S
Al106       O644   1.909       .  S
Al106       O646   1.774       .  S
C108        O645   1.254   1_545  A
C108        C482   1.463       .  S
C109        O110   1.268       .  A
C109        O640   1.262       .  A
C109        C997   1.498       .  S
O111        C126   1.260       .  A
O111       Al119   1.864       .  S
C112        O122   1.263       .  A
C112        O113   1.263       .  A
C112        C445   1.484       .  S
O113       Al115   1.936       .  S
O114        C116   1.260       .  A
O114       Al115   1.885       .  S
Al115       O123   1.834       .  S
Al115       O125   1.919       .  S
Al115       O124   1.786       .  S
C116        O129   1.268       .  A
C116        C449   1.472       .  S
O117        C127   1.256       .  A
O117       Al119   1.866       .  S
O118        C131   1.269       .  A
O118       Al128   1.942       .  S
Al119       O132   1.948       .  S
Al119       O129   1.944       .  S
Al119       O124   1.768       .  S
O120        C127   1.268       .  A
O120       Al128   1.921       .  S
O121        C130   1.269       .  A
O121       Al128   1.954       .  S
O122       Al128   1.913       .  S
O123        C130   1.251       .  A
O124       Al128   1.783       .  S
O125        C126   1.259       .  A
C126        C461   1.447       .  S
C127        C441   1.444   1_556  S
C130        C494   1.467       .  S
C131        O132   1.266       .  A
C131        C438   1.511       .  S
O133        C148   1.262       .  A
O133       Al141   1.926       .  S
C134        O688   1.258       .  A
C134        O679   1.264       .  A
C134        C450   1.479       .  S
O135        C678   1.263       .  A
O135       Al137   1.918   1_565  S
O136        C138   1.271       .  A
O136       Al137   1.924       .  S
Al137       O145   1.974       .  S
Al137       O147   1.951       .  S
Al137       O146   1.776       .  S
C138        O151   1.261       .  A
C138        C526   1.447       .  S
O139        C149   1.270       .  A
O139       Al141   1.957       .  S
O140        C153   1.257       .  A
O140       Al150   1.895       .  S
Al141       O154   1.876       .  S
Al141       O151   1.874       .  S
Al141       O146   1.774       .  S
O142        C149   1.257       .  A
O142       Al150   1.872       .  S
O143        C152   1.248       .  A
O143       Al150   1.834       .  S
O144        C678   1.258   1_545  A
O144       Al150   1.908       .  S
O145        C152   1.273       .  A
O146       Al150   1.781       .  S
O147        C148   1.271       .  A
C148        C485   1.505       .  S
C149       C1554   1.472   1_455  S
C152        C429   1.471       .  S
C153        O154   1.258       .  A
C153        C434   1.440       .  S
O155        C170   1.264       .  A
O155       Al163   1.942       .  S
C156        O166   1.259       .  A
C156        O157   1.265       .  A
C156        C469   1.479       .  S
O157       Al159   1.920       .  S
O158        C160   1.271       .  A
O158       Al159   1.937       .  S
Al159       O167   1.952       .  S
Al159       O169   1.926       .  S
Al159       O168   1.773       .  S
C160        O173   1.260       .  A
C160        C510   1.455       .  S
O161        C171   1.273       .  A
O161      Al1251   1.969   1_455  S
O162        C175   1.257       .  A
O162       Al172   1.898       .  S
Al163       O176   1.874       .  S
Al163       O173   1.873       .  S
Al163      O1249   1.958       .  S
Al163       O168   1.775       .  S
O164        C171   1.260   1_655  A
O164      Al1260   1.882       .  S
O165        C174   1.251       .  A
O165       Al172   1.838       .  S
O166       Al172   1.910       .  S
O167        C174   1.269       .  A
O168       Al172   1.785       .  S
O169        C170   1.265       .  A
C170        C473   1.499       .  S
C171        C446   1.487       .  S
Al172      O1252   1.880       .  S
C174        C425   1.465       .  S
C175        O176   1.257       .  A
C175       C1521   1.441       .  S
O177        C192   1.265       .  A
O177       Al185   1.939       .  S
C178        O188   1.260       .  A
C178        O179   1.266       .  A
C178        C417   1.485       .  S
O179       Al181   1.925       .  S
O180        C182   1.269       .  A
O180       Al181   1.926   1_556  S
Al181       O189   1.960       .  S
Al181       O191   1.953       .  S
Al181       O190   1.785       .  S
C182        O195   1.259       .  A
C182        C426   1.452       .  S
O183        C193   1.270       .  A
O183       Al185   1.960       .  S
O184        C197   1.258       .  A
O184       Al194   1.905       .  S
Al185       O198   1.875       .  S
Al185       O195   1.875   1_554  S
Al185       O190   1.768       .  S
O186        C193   1.259       .  A
O186       Al194   1.884       .  S
O187        C196   1.250       .  A
O187       Al194   1.830       .  S
O188       Al194   1.917       .  S
O189        C196   1.269       .  A
O190       Al194   1.785       .  S
O191        C192   1.271       .  A
C192        C437   1.510   1_554  S
C193        C421   1.482       .  S
C196        C409   1.469       .  S
C197        O198   1.257       .  A
C197        C413   1.443       .  S
O199        C214   1.260       .  A
O199       Al207   1.878       .  S
C200        O210   1.261       .  A
C200        O201   1.261       .  A
C200        C405   1.482       .  S
O201       Al203   1.937       .  S
O202        C204   1.263       .  A
O202       Al203   1.887       .  S
Al203       O211   1.843       .  S
Al203       O213   1.912       .  S
Al203       O212   1.790       .  S
C204        O217   1.274       .  A
C204       C1506   1.486   1_455  S
O205        C215   1.258       .  A
O205       Al207   1.861       .  S
O206        C219   1.266       .  A
O206       Al216   1.933       .  S
Al207       O220   1.969       .  S
Al207       O217   1.970       .  S
Al207       O212   1.777       .  S
O208        C215   1.264       .  A
O208       Al216   1.904       .  S
O209        C218   1.266       .  A
O209       Al216   1.935       .  S
O210       Al216   1.910       .  S
O211        C218   1.255       .  A
O212       Al216   1.778       .  S
O213        C214   1.257       .  A
C214        C401   1.448       .  S
C215        C397   1.442       .  S
C218        C442   1.458       .  S
C219        O220   1.269       .  A
C219        C394   1.516       .  S
O221        C236   1.265       .  A
O221       Al229   1.943       .  S
C222        O232   1.260       .  A
C222        O223   1.264       .  A
C222        C390   1.482       .  S
O223       Al225   1.917       .  S
O224        C226   1.271       .  A
O224       Al225   1.930   1_556  S
Al225       O233   1.957       .  S
Al225       O235   1.926       .  S
Al225       O234   1.772       .  S
C226        O239   1.263       .  A
C226        C430   1.457       .  S
O227        C237   1.276       .  A
O227       Al229   1.984       .  S
O228        C241   1.260       .  A
O228       Al238   1.909       .  S
Al229       O242   1.875       .  S
Al229       O239   1.874   1_554  S
Al229       O234   1.779       .  S
O230        C237   1.258       .  A
O230       Al238   1.873       .  S
O231        C240   1.250       .  A
O231       Al238   1.836       .  S
O232       Al238   1.920       .  S
O233        C240   1.270       .  A
O234       Al238   1.783       .  S
O235        C236   1.264       .  A
C236        C454   1.499   1_544  S
C237        C406   1.488       .  S
C240        C385   1.463       .  S
C241        O242   1.256       .  A
C241        C414   1.445       .  S
O243        C258   1.261       .  A
O243       Al251   1.877       .  S
C244        O254   1.261       .  A
C244        O245   1.258       .  A
C244        C422   1.483       .  S
O245       Al791   1.920   1_545  S
O246       C1336   1.262       .  A
O246       Al791   1.886   1_545  S
Al247       O255   1.842       .  S
Al247       O257   1.914       .  S
Al247       O789   1.934       .  S
Al247       O790   1.885       .  S
Al247       O256   1.787       .  S
C248       O1334   1.262   1_455  A
C248        O805   1.272   1_545  A
C248        C389   1.480       .  S
O249        C803   1.257       .  A
O249       Al251   1.867       .  S
O250        C263   1.268       .  A
O250       Al260   1.935       .  S
Al251       O264   1.957       .  S
Al251      O1349   1.959       .  S
Al251       O256   1.771       .  S
O252        C259   1.270   1_565  A
O252       Al804   1.933       .  S
O253        C262   1.271       .  A
O253       Al260   1.959       .  S
O254       Al804   1.919   1_545  S
O255        C262   1.252       .  A
O256       Al260   1.784       .  S
O257        C258   1.258       .  A
C258       C1490   1.445       .  S
C259        O793   1.257   1_545  A
C259        C381   1.450       .  S
Al260       O796   1.928       .  S
Al260       O798   1.914       .  S
O261        C792   1.271       .  A
O261      Al1339   1.957   1_455  S
C262        C458   1.466       .  S
C263        O264   1.269       .  A
C263        C377   1.513       .  S
O265        C280   1.259       .  A
O265       Al273   1.864       .  S
C266        O276   1.265       .  A
C266        O267   1.260       .  A
C266        C373   1.483       .  S
O267       Al269   1.923       .  S
O268        C270   1.260       .  A
O268       Al269   1.879       .  S
Al269       O277   1.842       .  S
Al269       O279   1.909       .  S
Al269       O278   1.787       .  S
C270        O283   1.269       .  A
C270        C370   1.470       .  S
O271        C281   1.256       .  A
O271       Al273   1.868       .  S
O272        C285   1.270       .  A
O272       Al282   1.943       .  S
Al273       O286   1.942       .  S
Al273       O283   1.947       .  S
Al273       O278   1.768       .  S
O274        C281   1.267       .  A
O274       Al282   1.925       .  S
O275        C284   1.270       .  A
O275       Al282   1.958       .  S
O276       Al282   1.922       .  S
O277        C284   1.253       .  A
O278       Al282   1.784       .  S
O279        C280   1.255       .  A
C280        C366   1.443       .  S
C281        C478   1.448       .  S
C284        C382   1.470       .  S
C285        O286   1.267       .  A
C285       C1610   1.507       .  S
O287        C302   1.261       .  A
O287       Al295   1.882       .  S
C288        O298   1.264       .  A
C288        O289   1.256       .  A
C288        C357   1.480       .  S
O289       Al291   1.911       .  S
O290        C292   1.261       .  A
O290       Al291   1.874       .  S
Al291       O299   1.845       .  S
Al291       O301   1.895       .  S
Al291       O300   1.788       .  S
C292        O305   1.275       .  A
C292        C361   1.477       .  S
O293        C303   1.261       .  A
O293       Al295   1.875       .  S
O294        C307   1.263       .  A
O294       Al304   1.918       .  S
Al295       O308   1.949       .  S
Al295       O305   1.971       .  S
Al295       O300   1.779       .  S
O296        C303   1.265       .  A
O296       Al304   1.910       .  S
O297        C306   1.267       .  A
O297       Al304   1.936       .  S
O298       Al304   1.925       .  S
O299        C306   1.254       .  A
O300       Al304   1.775       .  S
O301        C302   1.251       .  A
C302        C365   1.441       .  S
C303        C490   1.451       .  S
C306        C398   1.452       .  S
C307        O308   1.266       .  A
C307        C502   1.500       .  S
O309        C324   1.268       .  A
O309       Al317   1.952       .  S
C310        O320   1.254       .  A
C310        O311   1.263       .  A
C310        C369   1.477       .  S
O311       Al313   1.926       .  S
O312        C314   1.271       .  A
O312       Al313   1.936       .  S
Al313       O321   1.974       .  S
Al313       O323   1.937       .  S
Al313       O322   1.785       .  S
C314        O327   1.257       .  A
C314        C410   1.449       .  S
O315        C325   1.273       .  A
O315       Al317   1.967       .  S
O316        C329   1.250       .  A
O316       Al326   1.885       .  S
Al317       O330   1.883       .  S
Al317       O327   1.861       .  S
Al317       O322   1.767       .  S
O318        C325   1.262       .  A
O318       Al326   1.882       .  S
O319        C328   1.253       .  A
O319       Al326   1.837       .  S
O320       Al326   1.892       .  S
O321        C328   1.276       .  A
O322       Al326   1.785       .  S
O323        C324   1.267       .  A
C324        C378   1.513       .  S
C325        C358   1.478       .  S
C328        C506   1.473       .  S
C329        O330   1.264       .  A
C329        C353   1.436       .  S
O331        C346   1.267       .  A
O331       Al339   1.964       .  S
C332        O342   1.255       .  A
C332        O333   1.263       .  A
C332        C362   1.478       .  S
O333       Al879   1.920   1_545  S
O334        C336   1.266       .  A
O334       Al879   1.915   1_545  S
Al335       O343   1.932       .  S
Al335       O345   1.933       .  S
Al335       O877   1.924       .  S
Al335       O878   1.904       .  S
Al335       O344   1.778       .  S
C336        O893   1.260   1_545  A
C336        C386   1.450       .  S
O337        C891   1.274       .  A
O337       Al339   1.970       .  S
O338        C351   1.250       .  A
O338       Al348   1.887       .  S
Al339       O352   1.875       .  S
Al339       O349   1.864       .  S
Al339       O344   1.780       .  S
O340        C347   1.261       .  A
O340       Al892   1.880   1_545  S
O341        C350   1.256       .  A
O341       Al348   1.846       .  S
O342       Al892   1.906   1_545  S
O343        C350   1.267       .  A
O344       Al348   1.793       .  S
O345        C346   1.265       .  A
C346        C393   1.516       .  S
C347        O881   1.274   1_545  A
C347        C374   1.483       .  S
Al348       O884   1.880       .  S
Al348       O886   1.903       .  S
O349        C880   1.259       .  A
C350        C529   1.460       .  S
C351        O352   1.262       .  A
C351        C354   1.436       .  S
C353        C354   1.319       .  D
C353        H355   1.088       .  S
C354        H356   1.088       .  S
C357        C358   1.354       .  D
C357        H359   1.089       .  S
C358        H360   1.087       .  S
C361        C362   1.354       .  D
C361        H363   1.086       .  S
C362        H364   1.087       .  S
C365       C1454   1.325   1_455  D
C365        H367   1.088       .  S
C366       C1453   1.326       .  D
C366        H368   1.087       .  S
C369        C370   1.352       .  D
C369        H371   1.087       .  S
C370        H372   1.086       .  S
C373        C374   1.355       .  D
C373        H375   1.087       .  S
C374        H920   1.085       .  S
H376        C918   1.085       .  S
C377        C378   1.360       .  D
C377        H379   1.086       .  S
C378        H380   1.086       .  S
C381        C382   1.346       .  D
C381        H383   1.087       .  S
C382        H384   1.086   1_545  S
C385        C386   1.348       .  D
C385        H387   1.086   1_545  S
C386        H388   1.088       .  S
C389        C390   1.353       .  D
C389        H391   1.087       .  S
C390        H392   1.088       .  S
C393        C394   1.364       .  D
C393        H395   1.086       .  S
C394        H396   1.086       .  S
C397        C398   1.341       .  D
C397        H399   1.088       .  S
C398        H400   1.086       .  S
C401        C402   1.327       .  D
C401        H403   1.087   1_455  S
C402       C1346   1.446       .  S
C402        H404   1.087       .  S
C405        C406   1.355       .  D
C405        H407   1.087       .  S
C406        H408   1.086       .  S
C409        C410   1.347       .  D
C409        H411   1.086       .  S
C410        H412   1.087       .  S
C413        C414   1.328       .  D
C413        H415   1.088       .  S
C414        H416   1.089       .  S
C417        C418   1.355       .  D
C417        H419   1.086       .  S
C418       C1292   1.483       .  S
C418        H420   1.085       .  S
C421        C422   1.352       .  D
C421        H423   1.087       .  S
C422        H424   1.087       .  S
C425        C426   1.345       .  D
C425        H427   1.087       .  S
C426        H428   1.087       .  S
C429        C430   1.354       .  D
C429        H431   1.086       .  S
C430        H432   1.088       .  S
C433       C1263   1.438       .  S
C433        C434   1.323   1_655  D
C433       H1523   1.089       .  S
C434        H436   1.090       .  S
H435       C1521   1.089       .  S
C437        C438   1.355       .  D
C437        H439   1.087       .  S
C438        H440   1.087       .  S
C441        C442   1.340       .  D
C441        H443   1.087       .  S
C442        H444   1.087       .  S
C445        C446   1.353       .  D
C445        H447   1.086       .  S
C446        H448   1.085       .  S
C449        C450   1.351       .  D
C449        H451   1.087       .  S
C450        H452   1.087       .  S
C453        C653   1.497   1_545  S
C453        C454   1.355   1_545  D
C453        H455   1.087       .  S
C454        H456   1.086   1_556  S
C457        C458   1.348       .  D
C457        H459   1.088       .  S
C458        H460   1.086       .  S
C461        C462   1.329       .  D
C461        H463   1.087       .  S
C462        H464   1.088       .  S
C465       C1010   1.356       .  D
C465        H467   1.089       .  S
C466       C1237   1.476       .  S
C466       C1009   1.349       .  D
C466        H468   1.087       .  S
C469        C470   1.354       .  D
C469        H471   1.087       .  S
C470        H472   1.086       .  S
C473        C474   1.358       .  D
C473        H475   1.086       .  S
C474        H476   1.086       .  S
C477        C478   1.344       .  D
C477        H479   1.088       .  S
C478        H480   1.087       .  S
C481        C482   1.343       .  D
C481        H483   1.087   1_545  S
C482       H1028   1.087       .  S
H484       C1026   1.086       .  S
C485        C486   1.349       .  D
C485        H487   1.086       .  S
C486        H488   1.086       .  S
C489        C490   1.353       .  D
C489        H491   1.086       .  S
C490        H492   1.088       .  S
C493        C494   1.346       .  D
C493        H495   1.086       .  S
C494        H496   1.087       .  S
C497        C498   1.328       .  D
C497        H499   1.088       .  S
C498        H500   1.089       .  S
C501       C1126   1.501   1_455  S
C501        C502   1.356       .  D
C501       H1591   1.087       .  S
C502        H504   1.086       .  S
H503       C1589   1.086       .  S
C505        C506   1.352       .  D
C505        H507   1.087       .  S
C506        H508   1.086       .  S
C509        C510   1.350       .  D
C509        H511   1.087       .  S
C510        H512   1.086       .  S
C513        C514   1.347       .  D
C513        H515   1.086       .  S
C514        H516   1.086       .  S
C517        C518   1.355       .  D
C517        H519   1.086       .  S
C518        H520   1.087       .  S
C521        C560   1.513   1_545  S
C521        C522   1.360       .  D
C521       H1067   1.086   1_445  S
C522       C1373   1.511   1_455  S
C522        H524   1.086       .  S
H523       C1065   1.086       .  S
C525        C526   1.345       .  D
C525       H1071   1.087       .  S
C526        H528   1.087   1_545  S
H527       C1069   1.087       .  S
C529        C530   1.341       .  D
C529        H531   1.087       .  S
C530        H532   1.087       .  S
C533       C1622   1.327       .  D
C533        H535   1.089       .  S
C534       C1621   1.329       .  D
C534        H536   1.088   1_455  S
C537       C1082   1.351       .  D
C537        H539   1.086       .  S
C538       C1081   1.350   1_545  D
C538        H540   1.086       .  S
C541        C542   1.360       .  D
C541        H543   1.086       .  S
C542        H544   1.086       .  S
O545        C560   1.265       .  A
O545       Al553   1.930       .  S
C546        O556   1.264       .  A
C546        O547   1.276   1_565  A
C546       C1081   1.483       .  S
O547       Al549   1.974       .  S
O548        C550   1.262       .  A
O548       Al549   1.886   1_565  S
Al549       O558   1.784   1_545  S
C550        O563   1.261       .  A
C550       C1074   1.454       .  S
O551        C561   1.265       .  A
O551       Al553   1.951       .  S
O552        C565   1.261       .  A
O552       Al562   1.895       .  S
Al553       O566   1.899       .  S
Al553       O563   1.893       .  S
Al553       O558   1.778       .  S
O554        C561   1.253       .  A
O554       Al562   1.887       .  S
O555       Al562   1.868       .  S
O556       Al562   1.900       .  S
O557        C564   1.265       .  A
O558       Al562   1.786       .  S
C561       C1086   1.497       .  S
C564       C1069   1.460       .  S
C565        O566   1.269       .  A
C565       C1078   1.457       .  S
O567        C582   1.267       .  A
O567       Al575   1.954       .  S
C568        O578   1.261       .  A
C568        O569   1.260       .  A
C568       C1058   1.475       .  S
O569       Al571   1.905       .  S
O570        C572   1.269       .  A
O570       Al571   1.924       .  S
Al571       O579   1.960       .  S
Al571       O581   1.919       .  S
Al571       O580   1.770       .  S
C572        O585   1.263       .  A
C572       C1049   1.455       .  S
O573        C583   1.275       .  A
O573       Al575   1.979       .  S
O574        C587   1.261       .  A
O574       Al584   1.920       .  S
Al575       O588   1.870       .  S
Al575       O585   1.879       .  S
Al575       O580   1.781       .  S
O576        C583   1.257       .  A
O576       Al584   1.873       .  S
O577        C586   1.253       .  A
O577       Al584   1.850       .  S
O578       Al584   1.923       .  S
O579        C586   1.271       .  A
O580       Al584   1.784       .  S
O581        C582   1.264       .  A
C582       C2133   1.499       .  S
C583       C1061   1.488       .  S
C586       C1053   1.476       .  S
C587        O588   1.257       .  A
C587       C1077   1.449       .  S
O589        C604   1.257       .  A
O589       Al597   1.873       .  S
C590        O600   1.264       .  A
C590        O591   1.265       .  A
C590       C1085   1.487       .  S
O591       Al593   1.947       .  S
O592        C594   1.258       .  A
O592       Al593   1.880       .  S
Al593       O601   1.834       .  S
Al593       O603   1.924       .  S
Al593       O602   1.782       .  S
C594        O607   1.269       .  A
C594       C1057   1.476       .  S
O595        C605   1.261       .  A
O595       Al597   1.877       .  S
O596        C609   1.268       .  A
O596       Al606   1.930       .  S
Al597       O610   1.932       .  S
Al597       O607   1.951       .  S
Al597       O602   1.772       .  S
O598        C605   1.272       .  A
O598       Al606   1.941       .  S
O599        C608   1.271       .  A
O599       Al606   1.971       .  S
O600       Al606   1.906       .  S
O601        C608   1.247       .  A
O602       Al606   1.779       .  S
O603        C604   1.263       .  A
C604       C1041   1.453       .  S
C605       C1037   1.456       .  S
C608       C1033   1.470       .  S
C609        O610   1.263       .  A
C609       C1030   1.496       .  S
O611        C626   1.255       .  A
O611       Al619   1.868       .  S
C612       C1062   1.479       .  S
O613       Al615   1.947       .  S
O614        C616   1.260       .  A
O614       Al615   1.884       .  S
Al615       O623   1.827       .  S
Al615       O625   1.929       .  S
Al615       O624   1.781       .  S
C616        O629   1.272       .  A
C616       C1082   1.487       .  S
O617        C627   1.259       .  A
O617       Al619   1.861       .  S
O618        C631   1.265       .  A
O618       Al628   1.929       .  S
Al619       O632   1.944       .  S
Al619       O629   1.965       .  S
Al619       O624   1.778       .  S
O620        C627   1.267       .  A
O620       Al628   1.914       .  S
O621        C630   1.267       .  A
O621       Al628   1.946       .  S
O622       Al628   1.905       .  S
O623        C630   1.250       .  A
O624       Al628   1.775       .  S
O625        C626   1.264       .  A
C626       C1042   1.452       .  S
C627       C1025   1.443       .  S
C630       C1021   1.461       .  S
C631        O632   1.264       .  A
C631       C1018   1.503       .  S
O633        C648   1.262       .  A
O633       Al641   1.880       .  S
C634        O644   1.260       .  A
C634        O635   1.259       .  A
C634       C1009   1.475   1_565  S
O635       Al637   1.921       .  S
O636        C638   1.260       .  A
O636       Al637   1.878       .  S
Al637       O645   1.850       .  S
Al637       O647   1.906       .  S
Al637       O646   1.787       .  S
C638        O651   1.274       .  A
C638       C1014   1.482       .  S
O639        C649   1.261       .  A
O639       Al641   1.879       .  S
O640       Al650   1.908       .  S
Al641       O654   1.958       .  S
Al641       O651   1.969       .  S
Al641       O646   1.780       .  S
O642        C649   1.266       .  A
O643        C652   1.267       .  A
O643       Al650   1.941       .  S
O647        C648   1.255       .  A
C648       C1006   1.446       .  S
C649       C1001   1.452   1_556  S
C652       C1026   1.457       .  S
C653        O654   1.267       .  A
O655        C670   1.261       .  A
O655       Al663   1.866       .  S
C656        O666   1.263       .  A
C656        O657   1.262       .  A
C656        C989   1.487       .  S
O657       Al659   1.934       .  S
O658        C660   1.261       .  A
O658       Al659   1.887       .  S
Al659       O667   1.842       .  S
Al659       O669   1.917       .  S
Al659       O668   1.789       .  S
C660        O673   1.267       .  A
C660        C993   1.473       .  S
O661        C671   1.256       .  A
O661       Al663   1.866       .  S
O662        C675   1.270       .  A
O662       Al672   1.946       .  S
Al663       O676   1.950       .  S
Al663       O673   1.943       .  S
Al663       O668   1.773       .  S
O664        C671   1.269       .  A
O664       Al672   1.924       .  S
O665        C674   1.271       .  A
O665       Al672   1.959       .  S
O666       Al672   1.918       .  S
O667        C674   1.252       .  A
O668       Al672   1.782       .  S
O669        C670   1.259       .  A
C670       C1005   1.445       .  S
C671        C985   1.446   1_556  S
C674       C1038   1.473       .  S
C675        O676   1.266       .  A
C675        C982   1.515       .  S
O677        C692   1.262       .  A
O677       Al685   1.925       .  S
C678        C994   1.479       .  S
O679       Al681   1.922       .  S
O680        C682   1.271       .  A
O680       Al681   1.926       .  S
Al681       O689   1.968       .  S
Al681       O691   1.935       .  S
Al681       O690   1.780       .  S
C682        O695   1.260       .  A
C682       C1070   1.449       .  S
O683        C693   1.269       .  A
O683       Al685   1.954       .  S
O684        C697   1.256       .  A
O684       Al694   1.895       .  S
Al685       O698   1.879       .  S
Al685       O695   1.874       .  S
Al685       O690   1.768       .  S
O686        C693   1.259       .  A
O686       Al694   1.878       .  S
O687        C696   1.249       .  A
O687       Al694   1.831       .  S
O688       Al694   1.903       .  S
O689        C696   1.272       .  A
O690       Al694   1.778       .  S
O691        C692   1.268       .  A
C692       C1029   1.496       .  S
C693       C2098   1.474   1_455  S
C696        C973   1.468       .  S
C697        O698   1.259       .  A
C697        C978   1.440       .  S
O699        C714   1.267       .  A
O699       Al707   1.953       .  S
C700        O710   1.262       .  A
C700        O701   1.264       .  A
C700       C1013   1.480       .  S
O701       Al703   1.914       .  S
O702        C704   1.268       .  A
O702       Al703   1.931       .  S
Al703       O711   1.950       .  S
Al703       O713   1.923       .  S
Al703       O712   1.775       .  S
C704        O717   1.260       .  A
C704       C1054   1.458       .  S
O705        C715   1.275       .  A
O705      Al1795   1.976   1_455  S
O706        C719   1.258       .  A
O706       Al716   1.914       .  S
Al707      O1793   1.964       .  S
Al707       O720   1.875       .  S
Al707       O717   1.882       .  S
Al707       O712   1.776       .  S
O708        C715   1.260   1_655  A
O708      Al1804   1.881       .  S
O709        C718   1.252       .  A
O709       Al716   1.848       .  S
O710       Al716   1.928       .  S
O711        C718   1.268       .  A
O712       Al716   1.787       .  S
O713        C714   1.266       .  A
C714       C1017   1.502       .  S
C715        C990   1.489       .  S
Al716      O1796   1.878       .  S
C718        C969   1.467       .  S
C719        O720   1.257       .  A
C719       C2065   1.451       .  S
O721        C736   1.261       .  A
O721       Al729   1.932       .  S
C722        O732   1.259       .  A
C722        O723   1.265       .  A
C722        C961   1.490       .  S
O723       Al725   1.926       .  S
O724        C726   1.271       .  A
O724       Al725   1.931   1_556  S
Al725       O733   1.952       .  S
Al725       O735   1.959       .  S
Al725       O734   1.788       .  S
C726        O739   1.260       .  A
C726        C970   1.451       .  S
O727        C737   1.268       .  A
O727       Al729   1.958       .  S
O728        C741   1.262       .  A
O728       Al738   1.916       .  S
Al729       O742   1.875       .  S
Al729       O739   1.871   1_554  S
Al729       O734   1.776       .  S
O730        C737   1.258       .  A
O730       Al738   1.890       .  S
O731        C740   1.251       .  A
O731       Al738   1.825       .  S
O732       Al738   1.918       .  S
O733        C740   1.269       .  A
O734       Al738   1.792       .  S
O735        C736   1.268       .  A
C736        C981   1.514   1_554  S
C737        C965   1.486       .  S
C740        C953   1.468       .  S
C741        O742   1.258       .  A
C741        C957   1.447       .  S
O743        C758   1.260       .  A
O743       Al751   1.874       .  S
C744        O754   1.261       .  A
C744        O745   1.262       .  A
C744        C949   1.484       .  S
O745       Al747   1.940       .  S
O746        C748   1.262       .  A
O746       Al747   1.887       .  S
Al747       O755   1.844       .  S
Al747       O757   1.916       .  S
Al747       O756   1.790       .  S
C748        O761   1.275       .  A
C748       C2050   1.487   1_455  S
O749        C759   1.259       .  A
O749       Al751   1.863       .  S
O750        C763   1.265       .  A
O750       Al760   1.929       .  S
Al751       O764   1.973       .  S
Al751       O761   1.972       .  S
Al751       O756   1.778       .  S
O752        C759   1.265       .  A
O752       Al760   1.911       .  S
O753        C762   1.266       .  A
O753       Al760   1.936       .  S
O754       Al760   1.908       .  S
O755        C762   1.254       .  A
O756       Al760   1.778       .  S
O757        C758   1.258       .  A
C758        C945   1.449       .  S
C759        C941   1.447       .  S
C762        C986   1.460       .  S
C763        O764   1.269       .  A
C763        C938   1.515       .  S
O765        C780   1.267       .  A
O765       Al773   1.948       .  S
C766        O776   1.261       .  A
C766        O767   1.262       .  A
C766        C934   1.479       .  S
O767       Al769   1.912       .  S
O768        C770   1.267       .  A
O768       Al769   1.914   1_556  S
Al769       O777   1.947       .  S
Al769       O779   1.925       .  S
Al769       O778   1.775       .  S
C770        O783   1.262       .  A
C770        C974   1.448       .  S
O771        C781   1.276       .  A
O771       Al773   1.984       .  S
O772        C785   1.260       .  A
O772       Al782   1.913       .  S
Al773       O786   1.876       .  S
Al773       O783   1.874   1_554  S
Al773       O778   1.777       .  S
O774        C781   1.258       .  A
O774       Al782   1.872       .  S
O775        C784   1.250       .  A
O775       Al782   1.837       .  S
O776       Al782   1.926       .  S
O777        C784   1.267       .  A
O778       Al782   1.783       .  S
O779        C780   1.265       .  A
C780        C998   1.501   1_554  S
C781        C950   1.489       .  S
C784        C929   1.457       .  S
C785        O786   1.256       .  A
C785        C958   1.449       .  S
O787        C802   1.262       .  A
O787       Al795   1.886       .  S
C788        O798   1.262       .  A
C788        O789   1.262       .  A
C788        C966   1.485       .  S
O790       C1880   1.260       .  A
Al791       O799   1.837       .  S
Al791       O801   1.907       .  S
Al791       O800   1.788       .  S
C792       O1878   1.262   1_455  A
C792        C933   1.478       .  S
O793       Al795   1.865       .  S
O794        C807   1.266       .  A
O794       Al804   1.933       .  S
Al795       O808   1.952       .  S
Al795      O1893   1.966       .  S
Al795       O800   1.771       .  S
O796        C803   1.268       .  A
O797        C806   1.274       .  A
O797       Al804   1.966       .  S
O799        C806   1.254       .  A
O800       Al804   1.785       .  S
O801        C802   1.256       .  A
C802       C2034   1.446       .  S
C803        C925   1.448       .  S
O805      Al1883   1.962   1_455  S
C806       C1002   1.471       .  S
C807        O808   1.268       .  A
C807        C921   1.512       .  S
O809        C824   1.261       .  A
O809       Al817   1.868       .  S
C810        O820   1.265       .  A
C810        O811   1.257       .  A
C810        C917   1.484       .  S
O811       Al813   1.909       .  S
O812        C814   1.260       .  A
O812       Al813   1.883       .  S
Al813       O821   1.838       .  S
Al813       O823   1.906       .  S
Al813       O822   1.788       .  S
C814        O827   1.268       .  A
C814        C914   1.470       .  S
O815        C825   1.256       .  A
O815       Al817   1.860       .  S
O816        C829   1.270       .  A
O816       Al826   1.951       .  S
Al817       O830   1.946       .  S
Al817       O827   1.948       .  S
Al817       O822   1.770       .  S
O818        C825   1.268       .  A
O818       Al826   1.924       .  S
O819        C828   1.271       .  A
O819       Al826   1.952       .  S
O820       Al826   1.928       .  S
O821        C828   1.254       .  A
O822       Al826   1.785       .  S
O823        C824   1.255       .  A
C824        C910   1.440       .  S
C825       C1022   1.443       .  S
C828        C926   1.467       .  S
C829        O830   1.266       .  A
C829       C2154   1.516       .  S
O831        C846   1.261       .  A
O831       Al839   1.887       .  S
C832        O842   1.264       .  A
C832        O833   1.256       .  A
C832        C901   1.478       .  S
O833       Al835   1.907       .  S
O834        C836   1.261       .  A
O834       Al835   1.877       .  S
Al835       O843   1.850       .  S
Al835       O845   1.893       .  S
Al835       O844   1.789       .  S
C836        O849   1.275       .  A
C836        C905   1.477       .  S
O837        C847   1.260       .  A
O837       Al839   1.875       .  S
O838        C851   1.263       .  A
O838       Al848   1.916       .  S
Al839       O852   1.960       .  S
Al839       O849   1.970       .  S
Al839       O844   1.782       .  S
O840        C847   1.266       .  A
O840       Al848   1.915       .  S
O841        C850   1.268       .  A
O841       Al848   1.939       .  S
O842       Al848   1.924       .  S
O843        C850   1.255       .  A
O844       Al848   1.776       .  S
O845        C846   1.252       .  A
C846        C909   1.441       .  S
C847       C1034   1.454       .  S
C850        C942   1.455       .  S
C851        O852   1.268       .  A
C851       C1046   1.504       .  S
O853        C868   1.268       .  A
O853       Al861   1.956       .  S
C854        O864   1.253       .  A
C854        O855   1.263       .  A
C854        C913   1.478       .  S
O855       Al857   1.925       .  S
O856        C858   1.270       .  A
O856       Al857   1.931       .  S
Al857       O865   1.967       .  S
Al857       O867   1.931       .  S
Al857       O866   1.784       .  S
C858        O871   1.258       .  A
C858        C954   1.451       .  S
O859        C869   1.272       .  A
O859       Al861   1.965       .  S
O860        C873   1.250       .  A
O860       Al870   1.884       .  S
Al861       O874   1.885       .  S
Al861       O871   1.869       .  S
Al861       O866   1.772       .  S
O862        C869   1.260       .  A
O862       Al870   1.879       .  S
O863        C872   1.254       .  A
O863       Al870   1.841       .  S
O864       Al870   1.890       .  S
O865        C872   1.274       .  A
O866       Al870   1.787       .  S
O867        C868   1.266       .  A
C868        C922   1.513       .  S
C869        C902   1.475       .  S
C872       C1050   1.473       .  S
C873        O874   1.264       .  A
C873        C897   1.435       .  S
O875        C890   1.267       .  A
O875       Al883   1.963       .  S
C876        O886   1.254       .  A
C876        O877   1.263       .  A
C876        C906   1.480       .  S
O878        C880   1.264       .  A
Al879       O887   1.941       .  S
Al879       O889   1.933       .  S
Al879       O888   1.776       .  S
C880        C930   1.444       .  S
O881       Al883   1.971       .  S
O882        C895   1.252       .  A
O882       Al892   1.894       .  S
Al883       O896   1.867       .  S
Al883       O893   1.867       .  S
Al883       O888   1.780       .  S
O884        C891   1.261       .  A
O885        C894   1.255       .  A
O885       Al892   1.848       .  S
O887        C894   1.269       .  A
O888       Al892   1.795       .  S
O889        C890   1.266       .  A
C890        C937   1.516       .  S
C891        C918   1.481       .  S
C894       C1073   1.464       .  S
C895        O896   1.261       .  A
C895        C898   1.438       .  S
C897        C898   1.321       .  D
C897        H899   1.088       .  S
C898        H900   1.088       .  S
C901        C902   1.354       .  D
C901        H903   1.089       .  S
C902        H904   1.088       .  S
C905        C906   1.355       .  D
C905        H907   1.086       .  S
C906        H908   1.087       .  S
C909       C1998   1.325       .  D
C909        H911   1.088       .  S
C910       C1997   1.323       .  D
C910        H912   1.087       .  S
C913        C914   1.352       .  D
C913        H915   1.087       .  S
C914        H916   1.086       .  S
C917        C918   1.356       .  D
C917        H919   1.086       .  S
C921        C922   1.361       .  D
C921        H923   1.086       .  S
C922        H924   1.086       .  S
C925        C926   1.345       .  D
C925        H927   1.086       .  S
C926        H928   1.087       .  S
C929        C930   1.345       .  D
C929        H931   1.086       .  S
C930        H932   1.088       .  S
C933        C934   1.350       .  D
C933        H935   1.087       .  S
C934        H936   1.088       .  S
C937        C938   1.363       .  D
C937        H939   1.086       .  S
C938        H940   1.086       .  S
C941        C942   1.342       .  D
C941        H943   1.088       .  S
C942        H944   1.086       .  S
C945        C946   1.327       .  D
C945        H947   1.087   1_455  S
C946       C1890   1.446       .  S
C946        H948   1.088       .  S
C949        C950   1.355       .  D
C949        H951   1.087       .  S
C950        H952   1.086       .  S
C953        C954   1.347       .  D
C953        H955   1.087       .  S
C954        H956   1.087       .  S
C957        C958   1.329       .  D
C957        H959   1.088       .  S
C958        H960   1.089       .  S
C961        C962   1.357       .  D
C961        H963   1.086       .  S
C962       C1836   1.488       .  S
C962        H964   1.085       .  S
C965        C966   1.351       .  D
C965        H967   1.086       .  S
C966        H968   1.088       .  S
C969        C970   1.345       .  D
C969        H971   1.087       .  S
C970        H972   1.087       .  S
C973        C974   1.351       .  D
C973        H975   1.086       .  S
C974        H976   1.088       .  S
C977       C1807   1.440       .  S
C977        C978   1.324   1_655  D
C977       H2067   1.089       .  S
C978        H980   1.089       .  S
H979       C2065   1.089       .  S
C981        C982   1.357       .  D
C981        H983   1.087       .  S
C982        H984   1.086       .  S
C985        C986   1.341       .  D
C985        H987   1.087       .  S
C986        H988   1.087       .  S
C989        C990   1.355       .  D
C989        H991   1.086       .  S
C990        H992   1.085       .  S
C993        C994   1.350       .  D
C993        H995   1.086       .  S
C994        H996   1.087       .  S
C997        C998   1.355       .  D
C997        H999   1.087       .  S
C998       H1000   1.086   1_556  S
C1001      C1002   1.350       .  D
C1001      H1003   1.087       .  S
C1002      H1004   1.086       .  S
C1005      C1006   1.329       .  D
C1005      H1007   1.087       .  S
C1006      H1008   1.088       .  S
C1009      H1011   1.087       .  S
C1010      C1781   1.487       .  S
C1010      H1012   1.088       .  S
C1013      C1014   1.354       .  D
C1013      H1015   1.087       .  S
C1014      H1016   1.086       .  S
C1017      C1018   1.358       .  D
C1017      H1019   1.086       .  S
C1018      H1020   1.086       .  S
C1021      C1022   1.344       .  D
C1021      H1023   1.087       .  S
C1022      H1024   1.087       .  S
C1025      C1026   1.343       .  D
C1025      H1027   1.088       .  S
C1029      C1030   1.348       .  D
C1029      H1031   1.086       .  S
C1030      H1032   1.086       .  S
C1033      C1034   1.352       .  D
C1033      H1035   1.086       .  S
C1034      H1036   1.088       .  S
C1037      C1038   1.349       .  D
C1037      H1039   1.086       .  S
C1038      H1040   1.086       .  S
C1041      C1042   1.328       .  D
C1041      H1043   1.088       .  S
C1042      H1044   1.088       .  S
C1045      C1670   1.505   1_455  S
C1045      C1046   1.357       .  D
C1045      H2135   1.086       .  S
C1046      H1048   1.087       .  S
H1047      C2133   1.086       .  S
C1049      C1050   1.351       .  D
C1049      H1051   1.087       .  S
C1050      H1052   1.086       .  S
C1053      C1054   1.350       .  D
C1053      H1055   1.087       .  S
C1054      H1056   1.086       .  S
C1057      C1058   1.349       .  D
C1057      H1059   1.086       .  S
C1058      H1060   1.086       .  S
C1061      C1062   1.355       .  D
C1061      H1063   1.086       .  S
C1062      H1064   1.087       .  S
C1065      C1066   1.362       .  D
C1066      C1917   1.517   1_455  S
C1066      H1068   1.086       .  S
C1069      C1070   1.343       .  D
C1070      H1072   1.087       .  S
C1073      C1074   1.346       .  D
C1073      H1075   1.087       .  S
C1074      H1076   1.087       .  S
C1077      C2166   1.331       .  D
C1077      H1079   1.089       .  S
C1078      C2165   1.332       .  D
C1078      H1080   1.087   1_455  S
C1081      H1083   1.086       .  S
C1082      H1084   1.086       .  S
C1085      C1086   1.359       .  D
C1085      H1087   1.087       .  S
C1086      H1088   1.086       .  S
O1089      C1104   1.265       .  A
O1089     Al1097   1.945       .  S
C1090      O1100   1.262       .  A
C1090      O1091   1.261       .  A
C1090      C1625   1.488       .  S
O1091     Al1093   1.912       .  S
O1092      C1094   1.271       .  A
O1092     Al1093   1.922       .  S
Al1093     O1645   1.967       .  S
Al1093     O1647   1.954       .  S
Al1093     O1102   1.785       .  S
C1094      O1107   1.259       .  A
C1094      C1618   1.443       .  S
O1095      C1105   1.270       .  A
O1095     Al1097   1.963       .  S
O1096      C1109   1.262       .  A
O1096     Al1106   1.916       .  S
Al1097     O1110   1.872       .  S
Al1097     O1107   1.867       .  S
Al1097     O1102   1.772       .  S
O1098      C1105   1.259       .  A
O1098     Al1106   1.893       .  S
O1099      C1652   1.248       .  A
O1099     Al1106   1.823       .  S
O1100     Al1106   1.936       .  S
O1101      C1108   1.262       .  A
O1101     Al1637   1.928       .  S
O1102     Al1106   1.785       .  S
O1103      C1648   1.267   1_545  A
O1103     Al1637   1.954       .  S
C1104      O1647   1.269       .  A
C1104      C2153   1.516       .  S
C1105      C1630   1.489       .  S
C1108      O1643   1.254   1_545  A
C1108      C1613   1.466       .  S
C1109      O1110   1.259       .  A
C1109      C1622   1.446       .  S
O1111      C1126   1.267       .  A
O1111     Al1119   1.956       .  S
C1112      O1122   1.262       .  A
C1112      O1113   1.261       .  A
C1112      C1602   1.478       .  S
O1113     Al1115   1.908       .  S
O1114      C1116   1.269       .  A
O1114     Al1115   1.927       .  S
Al1115     O1123   1.959       .  S
Al1115     O1125   1.919       .  S
Al1115     O1124   1.772       .  S
C1116      O1129   1.262       .  A
C1116      C1593   1.456       .  S
O1117      C1127   1.277       .  A
O1117     Al1119   1.987       .  S
O1118      C1131   1.260       .  A
O1118     Al1128   1.914       .  S
Al1119     O1132   1.876       .  S
Al1119     O1129   1.876       .  S
Al1119     O1124   1.779       .  S
O1120      C1127   1.259       .  A
O1120     Al1128   1.878       .  S
O1121      C1130   1.251       .  A
O1121     Al1128   1.844       .  S
O1122     Al1128   1.931       .  S
O1123      C1130   1.270       .  A
O1124     Al1128   1.784       .  S
O1125      C1126   1.264       .  A
C1127      C1605   1.493       .  S
C1130      C1597   1.470       .  S
C1131      O1132   1.256       .  A
C1131      C1621   1.448   1_655  S
O1133      C1148   1.258       .  A
O1133     Al1141   1.874       .  S
C1134      O1144   1.263       .  A
C1134      O1135   1.262       .  A
C1134      C1629   1.488       .  S
O1135     Al1137   1.933       .  S
O1136      C1138   1.259       .  A
O1136     Al1137   1.882       .  S
Al1137     O1145   1.831       .  S
Al1137     O1147   1.919       .  S
Al1137     O1146   1.783       .  S
C1138      O1151   1.270       .  A
C1138      C1601   1.481       .  S
O1139      C1149   1.260       .  A
O1139     Al1141   1.873       .  S
O1140      C1153   1.269       .  A
O1140     Al1150   1.942       .  S
Al1141     O1154   1.932       .  S
Al1141     O1151   1.959       .  S
Al1141     O1146   1.774       .  S
O1142      C1149   1.272       .  A
O1142     Al1150   1.936       .  S
O1143      C1152   1.273       .  A
O1143     Al1150   1.973       .  S
O1144     Al1150   1.919       .  S
O1145      C1152   1.249       .  A
O1146     Al1150   1.780       .  S
O1147      C1148   1.261       .  A
C1148      C1585   1.449       .  S
C1149      C1581   1.452       .  S
C1152      C1577   1.472       .  S
C1153      O1154   1.263       .  A
C1153      C1574   1.503       .  S
O1155      C1170   1.257       .  A
O1155     Al1163   1.870       .  S
C1156      O1710   1.263       .  A
C1156      O1701   1.265       .  A
C1156      C1606   1.487       .  S
O1157      C1700   1.262       .  A
O1157     Al1159   1.939   1_565  S
O1158      C1160   1.262       .  A
O1158     Al1159   1.895       .  S
Al1159     O1167   1.829       .  S
Al1159     O1169   1.924       .  S
Al1159     O1168   1.786       .  S
C1160      O1173   1.269       .  A
C1160      C1626   1.488       .  S
O1161      C1171   1.263       .  A
O1161     Al1163   1.875       .  S
O1162      C1175   1.266       .  A
O1162     Al1172   1.938       .  S
Al1163     O1176   1.936       .  S
Al1163     O1173   1.957       .  S
Al1163     O1168   1.784       .  S
O1164      C1171   1.270       .  A
O1164     Al1172   1.919       .  S
O1165      C1174   1.267       .  A
O1165     Al1172   1.943       .  S
O1166      C1700   1.263       .  A
O1166     Al1172   1.915   1_565  S
O1167      C1174   1.251       .  A
O1168     Al1172   1.774       .  S
O1169      C1170   1.264       .  A
C1170      C1586   1.449       .  S
C1171      C1569   1.450       .  S
C1174      C1565   1.463       .  S
C1175      O1176   1.261       .  A
C1175      C1562   1.505       .  S
O1177      C1192   1.261       .  A
O1177     Al1185   1.878       .  S
C1178      O1188   1.259       .  A
C1178      O1179   1.259       .  A
C1178      C1553   1.473       .  S
O1179     Al1181   1.923       .  S
O1180      C1182   1.260       .  A
O1180     Al1181   1.873       .  S
Al1181     O1189   1.843       .  S
Al1181     O1191   1.910       .  S
Al1181     O1190   1.783       .  S
C1182      O1195   1.274       .  A
C1182      C1558   1.476       .  S
O1183      C1193   1.260       .  A
O1183     Al1185   1.871       .  S
O1184      C1741   1.260   1_545  A
O1184     Al1194   1.908       .  S
Al1185     O1198   1.954       .  S
Al1185     O1195   1.967       .  S
Al1185     O1190   1.777       .  S
O1186      C1193   1.266       .  A
O1186     Al1738   1.913       .  S
O1187      C1196   1.270       .  A
O1187     Al1194   1.950       .  S
O1188     Al1738   1.905       .  S
O1189      C1740   1.253       .  A
O1190     Al1738   1.772       .  S
O1191      C1192   1.256       .  A
C1192      C1550   1.447       .  S
C1193      C1545   1.448   1_556  S
Al1194     O1730   1.920   1_545  S
Al1194     O1732   1.910       .  S
Al1194     O1734   1.772   1_545  S
C1196      O1733   1.255   1_545  A
C1196      C1570   1.467       .  S
C1197      O1728   1.262       .  A
C1197      O1198   1.267       .  A
C1197      C2085   1.497       .  S
O1199      C1214   1.261       .  A
O1199     Al1207   1.869       .  S
C1200      O1210   1.261       .  A
C1200      O1201   1.262       .  A
C1200      C1533   1.478       .  S
O1201     Al1203   1.930       .  S
O1202      C1204   1.259       .  A
O1202     Al1203   1.883       .  S
Al1203     O1211   1.844       .  S
Al1203     O1213   1.913       .  S
Al1203     O1212   1.783       .  S
C1204      O1217   1.269       .  A
C1204      C1537   1.470       .  S
O1205      C1215   1.255       .  A
O1205     Al1207   1.865       .  S
O1206      C1219   1.268       .  A
O1206     Al1216   1.930       .  S
Al1207     O1220   1.958       .  S
Al1207     O1217   1.948       .  S
Al1207     O1212   1.768       .  S
O1208      C1215   1.268       .  A
O1208     Al1216   1.924       .  S
O1209      C1218   1.270       .  A
O1209     Al1216   1.957       .  S
O1210     Al1216   1.906       .  S
O1211      C1218   1.253       .  A
O1212     Al1216   1.780       .  S
O1213      C1214   1.258       .  A
C1214      C1549   1.443       .  S
C1215      C1529   1.444   1_556  S
C1218      C1582   1.471       .  S
C1219      O1220   1.269       .  A
C1219      C1526   1.510       .  S
O1221      C1236   1.262       .  A
O1221     Al1229   1.928       .  S
C1222      O1776   1.267       .  A
C1222      O1767   1.276       .  A
C1222      C1538   1.472       .  S
O1223      C1766   1.262       .  A
O1223     Al1225   1.918   1_565  S
O1224      C1226   1.271       .  A
O1224     Al1225   1.924       .  S
Al1225     O1233   1.974       .  S
Al1225     O1235   1.942       .  S
Al1225     O1234   1.779       .  S
C1226      O1239   1.262       .  A
C1226      C1614   1.451       .  S
O1227      C1237   1.271       .  A
O1227     Al1229   1.961       .  S
O1228      C1241   1.256       .  A
O1228     Al1238   1.894       .  S
Al1229     O1242   1.881       .  S
Al1229     O1239   1.878       .  S
Al1229     O1234   1.774       .  S
O1230      C1237   1.259       .  A
O1230     Al1238   1.876       .  S
O1231      C1240   1.249       .  A
O1231     Al1238   1.831       .  S
O1232      C1766   1.257   1_545  A
O1232     Al1238   1.902       .  S
O1233      C1240   1.273       .  A
O1234     Al1238   1.783       .  S
O1235      C1236   1.268       .  A
C1236      C1573   1.503       .  S
C1240      C1517   1.473       .  S
C1241      O1242   1.259       .  A
C1241      C1522   1.442       .  S
O1243      C1258   1.262       .  A
O1243     Al1251   1.939       .  S
C1244      O1254   1.256       .  A
C1244      O1245   1.262       .  A
C1244      C1557   1.476       .  S
O1245     Al1247   1.915       .  S
O1246      C1248   1.269       .  A
O1246     Al1247   1.920       .  S
Al1247     O1255   1.947       .  S
Al1247     O1257   1.934       .  S
Al1247     O1256   1.775       .  S
C1248      O1261   1.262       .  A
C1248      C1598   1.452       .  S
O1249      C1259   1.271       .  A
O1250      C1263   1.256       .  A
O1250     Al1260   1.894       .  S
Al1251     O1264   1.874       .  S
Al1251     O1261   1.875       .  S
Al1251     O1256   1.780       .  S
O1252      C1259   1.260       .  A
O1253      C1262   1.251       .  A
O1253     Al1260   1.832       .  S
O1254     Al1260   1.905       .  S
O1255      C1262   1.268       .  A
O1256     Al1260   1.790       .  S
O1257      C1258   1.265       .  A
C1258      C1561   1.505       .  S
C1259      C1534   1.479       .  S
C1262      C1513   1.463       .  S
C1263      O1264   1.257       .  A
O1265      C1280   1.263       .  A
O1265     Al1273   1.933       .  S
C1266      O1276   1.261       .  A
C1266      O1267   1.265       .  A
C1266      C1505   1.488       .  S
O1267     Al1269   1.923       .  S
O1268      C1270   1.271       .  A
O1268     Al1269   1.929   1_556  S
Al1269     O1277   1.956       .  S
Al1269     O1279   1.954       .  S
Al1269     O1278   1.785       .  S
C1270      O1283   1.259       .  A
C1270      C1514   1.448       .  S
O1271      C1281   1.269       .  A
O1271     Al1273   1.960       .  S
O1272      C1285   1.262       .  A
O1272     Al1282   1.917       .  S
Al1273     O1286   1.870       .  S
Al1273     O1283   1.871   1_554  S
Al1273     O1278   1.772       .  S
O1274      C1281   1.258       .  A
O1274     Al1282   1.887       .  S
O1275      C1284   1.250       .  A
O1275     Al1282   1.825       .  S
O1276     Al1282   1.923       .  S
O1277      C1284   1.269       .  A
O1278     Al1282   1.786       .  S
O1279      C1280   1.269       .  A
C1280      C1525   1.507   1_554  S
C1281      C1509   1.485       .  S
C1284      C1497   1.468       .  S
C1285      O1286   1.257       .  A
C1285      C1501   1.446       .  S
O1287      C1302   1.260       .  A
O1287     Al1295   1.871       .  S
C1288      O1298   1.261       .  A
C1288      O1289   1.262       .  A
C1288      C1493   1.481       .  S
O1289     Al1291   1.939       .  S
O1290      C1292   1.262       .  A
O1290     Al1291   1.885       .  S
Al1291     O1299   1.846       .  S
Al1291     O1301   1.916       .  S
Al1291     O1300   1.789       .  S
C1292      O1305   1.273       .  A
O1293      C1303   1.258       .  A
O1293     Al1295   1.864       .  S
O1294      C1307   1.265       .  A
O1294     Al1304   1.926       .  S
Al1295     O1308   1.967       .  S
Al1295     O1305   1.965       .  S
Al1295     O1300   1.778       .  S
O1296      C1303   1.264       .  A
O1296     Al1304   1.907       .  S
O1297      C1306   1.265       .  A
O1297     Al1304   1.932       .  S
O1298     Al1304   1.907       .  S
O1299      C1306   1.255       .  A
O1300     Al1304   1.776       .  S
O1301      C1302   1.258       .  A
C1302      C1489   1.448       .  S
C1303      C1485   1.443       .  S
C1306      C1530   1.459       .  S
C1307      O1308   1.268       .  A
C1307      C1482   1.511       .  S
O1309      C1324   1.266       .  A
O1309     Al1317   1.946       .  S
C1310      O1320   1.261       .  A
C1310      O1311   1.263       .  A
C1310      C1478   1.481       .  S
O1311     Al1313   1.916       .  S
O1312      C1314   1.269       .  A
O1312     Al1313   1.922   1_556  S
Al1313     O1321   1.956       .  S
Al1313     O1323   1.922       .  S
Al1313     O1322   1.772       .  S
C1314      O1327   1.262       .  A
C1314      C1518   1.453       .  S
O1315      C1325   1.277       .  A
O1315     Al1317   1.987       .  S
O1316      C1329   1.259       .  A
O1316     Al1326   1.913       .  S
Al1317     O1330   1.877       .  S
Al1317     O1327   1.876   1_554  S
Al1317     O1322   1.778       .  S
O1318      C1325   1.258       .  A
O1318     Al1326   1.868       .  S
O1319      C1328   1.251       .  A
O1319     Al1326   1.837       .  S
O1320     Al1326   1.927       .  S
O1321      C1328   1.269       .  A
O1322     Al1326   1.781       .  S
O1323      C1324   1.264       .  A
C1324      C1542   1.498   1_554  S
C1325      C1494   1.488       .  S
C1328      C1473   1.460       .  S
C1329      O1330   1.256       .  A
C1329      C1502   1.449       .  S
O1331      C1346   1.261   1_655  A
O1331     Al1339   1.879       .  S
C1332      O1342   1.262       .  A
C1332      O1333   1.261       .  A
C1332      C1510   1.485       .  S
O1333     Al1879   1.931   1_545  S
O1334     Al1879   1.885   1_545  S
Al1335     O1877   1.932       .  S
Al1335     O1878   1.887       .  S
Al1335     O1343   1.844       .  S
Al1335     O1345   1.913       .  S
Al1335     O1344   1.784       .  S
C1336      O1893   1.273   1_545  A
C1336      C1477   1.481       .  S
O1337      C1891   1.255       .  A
O1337     Al1339   1.864       .  S
O1338      C1351   1.267       .  A
O1338     Al1348   1.930       .  S
Al1339     O1352   1.956       .  S
Al1339     O1344   1.767       .  S
O1340      C1347   1.268   1_565  A
O1340     Al1892   1.928       .  S
O1341      C1350   1.271       .  A
O1341     Al1348   1.955       .  S
O1342     Al1892   1.917   1_545  S
O1343      C1350   1.253       .  A
O1344     Al1348   1.783       .  S
O1345      C1346   1.257   1_655  A
C1347      O1881   1.257   1_545  A
C1347      C1469   1.450       .  S
Al1348     O1884   1.920       .  S
Al1348     O1886   1.915       .  S
O1349      C1880   1.271       .  A
C1350      C1546   1.462       .  S
C1351      O1352   1.269       .  A
C1351      C1465   1.510       .  S
O1353      C1368   1.259       .  A
O1353     Al1361   1.867       .  S
C1354      O1364   1.265       .  A
C1354      O1355   1.259       .  A
C1354      C1461   1.484       .  S
O1355     Al1357   1.918       .  S
O1356      C1358   1.261       .  A
O1356     Al1357   1.883       .  S
Al1357     O1365   1.841       .  S
Al1357     O1367   1.903       .  S
Al1357     O1366   1.789       .  S
C1358      O1371   1.270       .  A
C1358      C1458   1.474       .  S
O1359      C1369   1.256       .  A
O1359     Al1361   1.867       .  S
O1360      C1373   1.268       .  A
O1360     Al1370   1.940       .  S
Al1361     O1374   1.951       .  S
Al1361     O1371   1.953       .  S
Al1361     O1366   1.769       .  S
O1362      C1369   1.268       .  A
O1362     Al1370   1.924       .  S
O1363      C1372   1.271       .  A
O1363     Al1370   1.956       .  S
O1364     Al1370   1.925       .  S
O1365      C1372   1.254       .  A
O1366     Al1370   1.784       .  S
O1367      C1368   1.254       .  A
C1368      C1454   1.440       .  S
C1369      C1566   1.448       .  S
C1372      C1470   1.470       .  S
C1373      O1374   1.268       .  A
O1375      C1390   1.261       .  A
O1375     Al1383   1.887       .  S
C1376      O1386   1.263       .  A
C1376      O1377   1.255       .  A
C1376      C1445   1.479       .  S
O1377     Al1379   1.906       .  S
O1378      C1380   1.261       .  A
O1378     Al1379   1.876       .  S
Al1379     O1387   1.844       .  S
Al1379     O1389   1.893       .  S
Al1379     O1388   1.788       .  S
C1380      O1393   1.274       .  A
C1380      C1449   1.477       .  S
O1381      C1391   1.262       .  A
O1381     Al1383   1.881       .  S
O1382      C1395   1.263       .  A
O1382     Al1392   1.915       .  S
Al1383     O1396   1.945       .  S
Al1383     O1393   1.968       .  S
Al1383     O1388   1.781       .  S
O1384      C1391   1.266       .  A
O1384     Al1392   1.916       .  S
O1385      C1394   1.269       .  A
O1385     Al1392   1.942       .  S
O1386     Al1392   1.925       .  S
O1387      C1394   1.255       .  A
O1388     Al1392   1.776       .  S
O1389      C1390   1.251       .  A
C1390      C1453   1.441       .  S
C1391      C1578   1.457       .  S
C1394      C1486   1.458       .  S
C1395      O1396   1.265       .  A
C1395      C1590   1.498       .  S
O1397      C1412   1.268       .  A
O1397     Al1405   1.951       .  S
C1398      O1408   1.257       .  A
C1398      O1399   1.264       .  A
C1398      C1457   1.481       .  S
O1399     Al1401   1.927       .  S
O1400      C1402   1.270       .  A
O1400     Al1401   1.935       .  S
Al1401     O1409   1.972       .  S
Al1401     O1411   1.936       .  S
Al1401     O1410   1.784       .  S
C1402      O1415   1.258       .  A
C1402      C1498   1.452       .  S
O1403      C1413   1.272       .  A
O1403     Al1405   1.966       .  S
O1404      C1417   1.253       .  A
O1404     Al1414   1.894       .  S
Al1405     O1418   1.883       .  S
Al1405     O1415   1.868       .  S
Al1405     O1410   1.768       .  S
O1406      C1413   1.260       .  A
O1406     Al1414   1.878       .  S
O1407      C1416   1.253       .  A
O1407     Al1414   1.841       .  S
O1408     Al1414   1.902       .  S
O1409      C1416   1.274       .  A
O1410     Al1414   1.784       .  S
O1411      C1412   1.268       .  A
C1412      C1466   1.510       .  S
C1413      C1446   1.476       .  S
C1416      C1594   1.472       .  S
C1417      O1418   1.262       .  A
C1417      C1441   1.440       .  S
O1419      C1434   1.268       .  A
O1419     Al1427   1.961       .  S
C1420      O1430   1.256       .  A
C1420      O1421   1.263       .  A
C1420      C1450   1.478       .  S
O1421     Al1967   1.920   1_545  S
O1422      C1424   1.265       .  A
O1422     Al1967   1.912   1_545  S
Al1423     O1965   1.922       .  S
Al1423     O1966   1.910       .  S
Al1423     O1431   1.931       .  S
Al1423     O1433   1.929       .  S
Al1423     O1432   1.779       .  S
C1424      O1981   1.259   1_545  A
C1424      C1474   1.447       .  S
O1425      C1979   1.275       .  A
O1425     Al1427   1.974       .  S
O1426      C1439   1.252       .  A
O1426     Al1436   1.897       .  S
Al1427     O1440   1.874       .  S
Al1427     O1437   1.863       .  S
Al1427     O1432   1.777       .  S
O1428      C1435   1.261       .  A
O1428     Al1980   1.880   1_545  S
O1429      C1438   1.256       .  A
O1429     Al1436   1.851       .  S
O1430     Al1980   1.907   1_545  S
O1431      C1438   1.267       .  A
O1432     Al1436   1.792       .  S
O1433      C1434   1.265       .  A
C1434      C1481   1.512       .  S
C1435      O1969   1.274   1_545  A
C1435      C1462   1.483       .  S
Al1436     O1972   1.886       .  S
Al1436     O1974   1.909       .  S
O1437      C1968   1.259       .  A
C1438      C1617   1.460       .  S
C1439      O1440   1.260       .  A
C1439      C1442   1.440       .  S
C1441      C1442   1.322       .  D
C1441      H1443   1.088       .  S
C1442      H1444   1.087       .  S
C1445      C1446   1.354       .  D
C1445      H1447   1.088       .  S
C1446      H1448   1.087       .  S
C1449      C1450   1.354       .  D
C1449      H1451   1.086       .  S
C1450      H1452   1.087       .  S
C1453      H1455   1.088       .  S
C1454      H1456   1.087       .  S
C1457      C1458   1.353       .  D
C1457      H1459   1.087       .  S
C1458      H1460   1.086       .  S
C1461      C1462   1.356       .  D
C1461      H1463   1.086       .  S
C1462      H2008   1.085       .  S
H1464      C2006   1.085       .  S
C1465      C1466   1.359       .  D
C1465      H1467   1.087       .  S
C1466      H1468   1.087       .  S
C1469      C1470   1.347       .  D
C1469      H1471   1.086       .  S
C1470      H1472   1.087   1_545  S
C1473      C1474   1.347       .  D
C1473      H1475   1.087   1_545  S
C1474      H1476   1.088       .  S
C1477      C1478   1.353       .  D
C1477      H1479   1.088       .  S
C1478      H1480   1.089       .  S
C1481      C1482   1.361       .  D
C1481      H1483   1.086       .  S
C1482      H1484   1.086       .  S
C1485      C1486   1.343       .  D
C1485      H1487   1.087       .  S
C1486      H1488   1.086       .  S
C1489      C1490   1.328       .  D
C1489      H1491   1.087       .  S
C1490      H1492   1.088       .  S
C1493      C1494   1.356       .  D
C1493      H1495   1.087       .  S
C1494      H1496   1.086       .  S
C1497      C1498   1.348       .  D
C1497      H1499   1.086       .  S
C1498      H1500   1.087       .  S
C1501      C1502   1.328       .  D
C1501      H1503   1.088       .  S
C1502      H1504   1.089       .  S
C1505      C1506   1.355       .  D
C1505      H1507   1.086       .  S
C1506      H1508   1.085       .  S
C1509      C1510   1.352       .  D
C1509      H1511   1.086       .  S
C1510      H1512   1.087       .  S
C1513      C1514   1.345       .  D
C1513      H1515   1.087       .  S
C1514      H1516   1.087       .  S
C1517      C1518   1.354       .  D
C1517      H1519   1.086       .  S
C1518      H1520   1.087       .  S
C1521      C1522   1.323       .  D
C1522      H1524   1.089       .  S
C1525      C1526   1.355       .  D
C1525      H1527   1.087       .  S
C1526      H1528   1.087       .  S
C1529      C1530   1.340       .  D
C1529      H1531   1.086       .  S
C1530      H1532   1.087       .  S
C1533      C1534   1.349       .  D
C1533      H1535   1.087       .  S
C1534      H1536   1.086       .  S
C1537      C1538   1.348       .  D
C1537      H1539   1.087       .  S
C1538      H1540   1.087       .  S
C1541      C1741   1.496   1_545  S
C1541      C1542   1.355       .  D
C1541      H1543   1.087       .  S
C1542      H1544   1.086   1_546  S
C1545      C1546   1.346       .  D
C1545      H1547   1.088       .  S
C1546      H1548   1.086       .  S
C1549      C1550   1.328       .  D
C1549      H1551   1.088       .  S
C1550      H1552   1.088       .  S
C1553      C2098   1.347       .  D
C1553      H1555   1.088       .  S
C1554      C2097   1.349       .  D
C1554      H1556   1.087       .  S
C1557      C1558   1.353       .  D
C1557      H1559   1.087       .  S
C1558      H1560   1.086       .  S
C1561      C1562   1.362       .  D
C1561      H1563   1.086       .  S
C1562      H1564   1.086       .  S
C1565      C1566   1.345       .  D
C1565      H1567   1.087       .  S
C1566      H1568   1.087       .  S
C1569      C1570   1.346       .  D
C1569      H1571   1.087   1_545  S
C1570      H2116   1.087       .  S
H1572      C2114   1.086       .  S
C1573      C1574   1.351       .  D
C1573      H1575   1.087       .  S
C1574      H1576   1.087       .  S
C1577      C1578   1.353       .  D
C1577      H1579   1.085       .  S
C1578      H1580   1.088       .  S
C1581      C1582   1.347       .  D
C1581      H1583   1.086       .  S
C1582      H1584   1.087       .  S
C1585      C1586   1.327       .  D
C1585      H1587   1.089       .  S
C1586      H1588   1.089       .  S
C1589      C1590   1.356       .  D
C1590      H1592   1.086       .  S
C1593      C1594   1.352       .  D
C1593      H1595   1.087       .  S
C1594      H1596   1.086       .  S
C1597      C1598   1.349       .  D
C1597      H1599   1.086       .  S
C1598      H1600   1.087       .  S
C1601      C1602   1.350       .  D
C1601      H1603   1.087       .  S
C1602      H1604   1.088       .  S
C1605      C1606   1.357       .  D
C1605      H1607   1.086       .  S
C1606      H1608   1.087       .  S
C1609      C1648   1.510   1_545  S
C1609      C1610   1.357       .  D
C1609      H2155   1.086   1_545  S
C1610      H1612   1.086       .  S
H1611      C2153   1.086       .  S
C1613      C1614   1.346       .  D
C1613      H2159   1.086       .  S
C1614      H1616   1.087   1_545  S
H1615      C2157   1.086       .  S
C1617      C1618   1.340       .  D
C1617      H1619   1.088       .  S
C1618      H1620   1.086       .  S
C1621      H1623   1.090       .  S
C1622      H1624   1.088       .  S
C1625      C2170   1.353       .  D
C1625      H1627   1.086       .  S
C1626      C2169   1.348   1_545  D
C1626      H1628   1.087       .  S
C1629      C1630   1.353       .  D
C1629      H1631   1.087       .  S
C1630      H1632   1.087       .  S
O1633      C1648   1.264       .  A
O1633     Al1641   1.923       .  S
C1634      O1644   1.263       .  A
C1634      O1635   1.276   1_565  A
C1634      C2169   1.479       .  S
O1635     Al1637   1.972       .  S
O1636      C1638   1.261       .  A
O1636     Al1637   1.881   1_565  S
Al1637     O1646   1.781   1_545  S
C1638      O1651   1.260       .  A
C1638      C2162   1.450       .  S
O1639      C1649   1.263       .  A
O1639     Al1641   1.944       .  S
O1640      C1653   1.261       .  A
O1640     Al1650   1.891       .  S
Al1641     O1654   1.900       .  S
Al1641     O1651   1.893       .  S
Al1641     O1646   1.778       .  S
O1642      C1649   1.253       .  A
O1642     Al1650   1.888       .  S
O1643     Al1650   1.871       .  S
O1644     Al1650   1.895       .  S
O1645      C1652   1.271       .  A
O1646     Al1650   1.785       .  S
C1649      C2174   1.492       .  S
C1652      C2157   1.476       .  S
C1653      O1654   1.270       .  A
C1653      C2166   1.456       .  S
O1655      C1670   1.269       .  A
O1655     Al1663   1.964       .  S
C1656      O1666   1.263       .  A
C1656      O1657   1.261       .  A
C1656      C2146   1.482       .  S
O1657     Al1659   1.908       .  S
O1658      C1660   1.269       .  A
O1658     Al1659   1.925       .  S
Al1659     O1667   1.955       .  S
Al1659     O1669   1.923       .  S
Al1659     O1668   1.773       .  S
C1660      O1673   1.263       .  A
C1660      C2137   1.453       .  S
O1661      C1671   1.278       .  A
O1661     Al1663   1.992       .  S
O1662      C1675   1.262       .  A
O1662     Al1672   1.927       .  S
Al1663     O1676   1.867       .  S
Al1663     O1673   1.873       .  S
Al1663     O1668   1.779       .  S
O1664      C1671   1.257       .  A
O1664     Al1672   1.876       .  S
O1665      C1674   1.250       .  A
O1665     Al1672   1.839       .  S
O1666     Al1672   1.936       .  S
O1667      C1674   1.269       .  A
O1668     Al1672   1.784       .  S
O1669      C1670   1.264       .  A
C1671      C2149   1.496       .  S
C1674      C2141   1.469       .  S
C1675      O1676   1.256       .  A
C1675      C2165   1.450   1_655  S
O1677      C1692   1.256       .  A
O1677     Al1685   1.872       .  S
C1678      O1688   1.261       .  A
C1678      O1679   1.263       .  A
C1678      C2173   1.482       .  S
O1679     Al1681   1.939       .  S
O1680      C1682   1.260       .  A
O1680     Al1681   1.887       .  S
Al1681     O1689   1.832       .  S
Al1681     O1691   1.919       .  S
Al1681     O1690   1.785       .  S
C1682      O1695   1.269       .  A
C1682      C2145   1.482       .  S
O1683      C1693   1.261       .  A
O1683     Al1685   1.874       .  S
O1684      C1697   1.266       .  A
O1684     Al1694   1.928       .  S
Al1685     O1698   1.922       .  S
Al1685     O1695   1.955       .  S
Al1685     O1690   1.773       .  S
O1686      C1693   1.271       .  A
O1686     Al1694   1.934       .  S
O1687      C1696   1.271       .  A
O1687     Al1694   1.968       .  S
O1688     Al1694   1.900       .  S
O1689      C1696   1.248       .  A
O1690     Al1694   1.784       .  S
O1691      C1692   1.261       .  A
C1692      C2129   1.450       .  S
C1693      C2125   1.453       .  S
C1696      C2121   1.471       .  S
C1697      O1698   1.261       .  A
C1697      C2118   1.489       .  S
O1699      C1714   1.256       .  A
O1699     Al1707   1.868       .  S
C1700      C2150   1.489       .  S
O1701     Al1703   1.947       .  S
O1702      C1704   1.261       .  A
O1702     Al1703   1.888       .  S
Al1703     O1711   1.831       .  S
Al1703     O1713   1.921       .  S
Al1703     O1712   1.784       .  S
C1704      O1717   1.273       .  A
C1704      C2170   1.490       .  S
O1705      C1715   1.261       .  A
O1705     Al1707   1.867       .  S
O1706      C1719   1.267       .  A
O1706     Al1716   1.934       .  S
Al1707     O1720   1.949       .  S
Al1707     O1717   1.968       .  S
Al1707     O1712   1.779       .  S
O1708      C1715   1.267       .  A
O1708     Al1716   1.915       .  S
O1709      C1718   1.266       .  A
O1709     Al1716   1.947       .  S
O1710     Al1716   1.910       .  S
O1711      C1718   1.249       .  A
O1712     Al1716   1.777       .  S
O1713      C1714   1.262       .  A
C1714      C2130   1.450       .  S
C1715      C2113   1.445       .  S
C1718      C2109   1.465       .  S
C1719      O1720   1.265       .  A
C1719      C2106   1.506       .  S
O1721      C1736   1.264       .  A
O1721     Al1729   1.885       .  S
C1722      O1732   1.259   1_565  A
C1722      O1723   1.256       .  A
C1722      C2097   1.471   1_565  S
O1723     Al1725   1.908       .  S
O1724      C1726   1.261       .  A
O1724     Al1725   1.877       .  S
Al1725     O1733   1.846       .  S
Al1725     O1735   1.897       .  S
Al1725     O1734   1.787       .  S
C1726      O1739   1.273       .  A
C1726      C2102   1.474       .  S
O1727      C1737   1.262       .  A
O1727     Al1729   1.878       .  S
O1728     Al1738   1.910       .  S
Al1729     O1742   1.951       .  S
Al1729     O1739   1.962       .  S
Al1729     O1734   1.781       .  S
O1730      C1737   1.268       .  A
O1731      C1740   1.269       .  A
O1731     Al1738   1.947       .  S
O1735      C1736   1.253       .  A
C1736      C2094   1.443       .  S
C1737      C2089   1.456   1_556  S
C1740      C2114   1.461       .  S
C1741      O1742   1.265       .  A
O1743      C1758   1.261       .  A
O1743     Al1751   1.869       .  S
C1744      O1754   1.262       .  A
C1744      O1745   1.261       .  A
C1744      C2077   1.480       .  S
O1745     Al1747   1.927       .  S
O1746      C1748   1.261       .  A
O1746     Al1747   1.884       .  S
Al1747     O1755   1.843       .  S
Al1747     O1757   1.905       .  S
Al1747     O1756   1.788       .  S
C1748      O1761   1.269       .  A
C1748      C2081   1.472       .  S
O1749      C1759   1.256       .  A
O1749     Al1751   1.868       .  S
O1750      C1763   1.269       .  A
O1750     Al1760   1.938       .  S
Al1751     O1764   1.955       .  S
Al1751     O1761   1.945       .  S
Al1751     O1756   1.769       .  S
O1752      C1759   1.268       .  A
O1752     Al1760   1.923       .  S
O1753      C1762   1.272       .  A
O1753     Al1760   1.963       .  S
O1754     Al1760   1.912       .  S
O1755      C1762   1.253       .  A
O1756     Al1760   1.782       .  S
O1757      C1758   1.255       .  A
C1758      C2093   1.441       .  S
C1759      C2073   1.448   1_556  S
C1762      C2126   1.474       .  S
C1763      O1764   1.268       .  A
C1763      C2070   1.514       .  S
O1765      C1780   1.261       .  A
O1765     Al1773   1.919       .  S
C1766      C2082   1.478       .  S
O1767     Al1769   1.957       .  S
O1768      C1770   1.263       .  A
O1768     Al1769   1.879       .  S
Al1769     O1777   1.958       .  S
Al1769     O1779   1.918       .  S
Al1769     O1778   1.775       .  S
C1770      O1783   1.261       .  A
C1770      C2158   1.451       .  S
O1771      C1781   1.264       .  A
O1771     Al1773   1.946       .  S
O1772      C1785   1.262       .  A
O1772     Al1782   1.893       .  S
Al1773     O1786   1.904       .  S
Al1773     O1783   1.904       .  S
Al1773     O1778   1.781       .  S
O1774      C1781   1.250       .  A
O1774     Al1782   1.870       .  S
O1775      C1784   1.247       .  A
O1775     Al1782   1.856       .  S
O1776     Al1782   1.890       .  S
O1777      C1784   1.265       .  A
O1778     Al1782   1.789       .  S
O1779      C1780   1.262       .  A
C1780      C2117   1.496       .  S
C1784      C2061   1.475       .  S
C1785      O1786   1.272       .  A
C1785      C2066   1.457       .  S
O1787      C1802   1.264       .  A
O1787     Al1795   1.948       .  S
C1788      O1798   1.257       .  A
C1788      O1789   1.263       .  A
C1788      C2101   1.475       .  S
O1789     Al1791   1.915       .  S
O1790      C1792   1.268       .  A
O1790     Al1791   1.919       .  S
Al1791     O1799   1.949       .  S
Al1791     O1801   1.933       .  S
Al1791     O1800   1.774       .  S
C1792      O1805   1.261       .  A
C1792      C2142   1.449       .  S
O1793      C1803   1.273       .  A
O1794      C1807   1.257       .  A
O1794     Al1804   1.894       .  S
Al1795     O1808   1.876       .  S
Al1795     O1805   1.872       .  S
Al1795     O1800   1.777       .  S
O1796      C1803   1.259       .  A
O1797      C1806   1.251       .  A
O1797     Al1804   1.834       .  S
O1798     Al1804   1.907       .  S
O1799      C1806   1.268       .  A
O1800     Al1804   1.787       .  S
O1801      C1802   1.266       .  A
C1802      C2105   1.506       .  S
C1803      C2078   1.483       .  S
C1806      C2057   1.463       .  S
C1807      O1808   1.257       .  A
O1809      C1824   1.262       .  A
O1809     Al1817   1.932       .  S
C1810      O1820   1.258       .  A
C1810      O1811   1.265       .  A
C1810      C2049   1.490       .  S
O1811     Al1813   1.928       .  S
O1812      C1814   1.271       .  A
O1812     Al1813   1.926   1_556  S
Al1813     O1821   1.954       .  S
Al1813     O1823   1.956       .  S
Al1813     O1822   1.787       .  S
C1814      O1827   1.259       .  A
C1814      C2058   1.447       .  S
O1815      C1825   1.269       .  A
O1815     Al1817   1.958       .  S
O1816      C1829   1.260       .  A
O1816     Al1826   1.911       .  S
Al1817     O1830   1.876       .  S
Al1817     O1827   1.868   1_554  S
Al1817     O1822   1.775       .  S
O1818      C1825   1.259       .  A
O1818     Al1826   1.887       .  S
O1819      C1828   1.251       .  A
O1819     Al1826   1.824       .  S
O1820     Al1826   1.913       .  S
O1821      C1828   1.270       .  A
O1822     Al1826   1.791       .  S
O1823      C1824   1.268       .  A
C1824      C2069   1.512   1_554  S
C1825      C2053   1.483       .  S
C1828      C2041   1.467       .  S
C1829      O1830   1.258       .  A
C1829      C2045   1.445       .  S
O1831      C1846   1.261       .  A
O1831     Al1839   1.877       .  S
C1832      O1842   1.259       .  A
C1832      O1833   1.261       .  A
C1832      C2037   1.476       .  S
O1833     Al1835   1.933       .  S
O1834      C1836   1.263       .  A
O1834     Al1835   1.890       .  S
Al1835     O1843   1.851       .  S
Al1835     O1845   1.910       .  S
Al1835     O1844   1.790       .  S
C1836      O1849   1.275       .  A
O1837      C1847   1.258       .  A
O1837     Al1839   1.863       .  S
O1838      C1851   1.265       .  A
O1838     Al1848   1.925       .  S
Al1839     O1852   1.973       .  S
Al1839     O1849   1.972       .  S
Al1839     O1844   1.777       .  S
O1840      C1847   1.263       .  A
O1840     Al1848   1.901       .  S
O1841      C1850   1.266       .  A
O1841     Al1848   1.933       .  S
O1842     Al1848   1.902       .  S
O1843      C1850   1.256       .  A
O1844     Al1848   1.777       .  S
O1845      C1846   1.257       .  A
C1846      C2033   1.447       .  S
C1847      C2029   1.440       .  S
C1850      C2074   1.461       .  S
C1851      O1852   1.269       .  A
C1851      C2026   1.513       .  S
O1853      C1868   1.266       .  A
O1853     Al1861   1.945       .  S
C1854      O1864   1.261       .  A
C1854      O1855   1.263       .  A
C1854      C2022   1.481       .  S
O1855     Al1857   1.915       .  S
O1856      C1858   1.270       .  A
O1856     Al1857   1.921   1_556  S
Al1857     O1865   1.954       .  S
Al1857     O1867   1.922       .  S
Al1857     O1866   1.771       .  S
C1858      O1871   1.259       .  A
C1858      C2062   1.451       .  S
O1859      C1869   1.275       .  A
O1859     Al1861   1.973       .  S
O1860      C1873   1.259       .  A
O1860     Al1870   1.908       .  S
Al1861     O1874   1.879       .  S
Al1861     O1871   1.874   1_554  S
Al1861     O1866   1.778       .  S
O1862      C1869   1.259       .  A
O1862     Al1870   1.870       .  S
O1863      C1872   1.251       .  A
O1863     Al1870   1.841       .  S
O1864     Al1870   1.926       .  S
O1865      C1872   1.269       .  A
O1866     Al1870   1.781       .  S
O1867      C1868   1.264       .  A
C1868      C2086   1.499   1_554  S
C1869      C2038   1.482       .  S
C1872      C2017   1.455       .  S
C1873      O1874   1.256       .  A
C1873      C2046   1.447       .  S
O1875      C1890   1.261   1_655  A
O1875     Al1883   1.883       .  S
C1876      O1886   1.262       .  A
C1876      O1877   1.262       .  A
C1876      C2054   1.482       .  S
Al1879     O1887   1.844       .  S
Al1879     O1889   1.910       .  S
Al1879     O1888   1.787       .  S
C1880      C2021   1.481       .  S
O1881     Al1883   1.869       .  S
O1882      C1895   1.267       .  A
O1882     Al1892   1.935       .  S
Al1883     O1896   1.952       .  S
Al1883     O1888   1.772       .  S
O1884      C1891   1.267       .  A
O1885      C1894   1.273       .  A
O1885     Al1892   1.965       .  S
O1887      C1894   1.253       .  A
O1888     Al1892   1.784       .  S
O1889      C1890   1.257   1_655  A
C1891      C2013   1.444       .  S
C1894      C2090   1.470       .  S
C1895      O1896   1.268       .  A
C1895      C2009   1.511       .  S
O1897      C1912   1.260       .  A
O1897     Al1905   1.866       .  S
C1898      O1908   1.265       .  A
C1898      O1899   1.261       .  A
C1898      C2005   1.487       .  S
O1899     Al1901   1.932       .  S
O1900      C1902   1.260       .  A
O1900     Al1901   1.876       .  S
Al1901     O1909   1.836       .  S
Al1901     O1911   1.913       .  S
Al1901     O1910   1.786       .  S
C1902      O1915   1.274       .  A
C1902      C2002   1.479       .  S
O1903      C1913   1.255       .  A
O1903     Al1905   1.859       .  S
O1904      C1917   1.266       .  A
O1904     Al1914   1.931       .  S
Al1905     O1918   1.978       .  S
Al1905     O1915   1.969       .  S
Al1905     O1910   1.772       .  S
O1906      C1913   1.267       .  A
O1906     Al1914   1.923       .  S
O1907      C1916   1.267       .  A
O1907     Al1914   1.942       .  S
O1908     Al1914   1.921       .  S
O1909      C1916   1.253       .  A
O1910     Al1914   1.774       .  S
O1911      C1912   1.257       .  A
C1912      C1998   1.447   1_655  S
C1913      C2110   1.442       .  S
C1916      C2014   1.458       .  S
C1917      O1918   1.271       .  A
O1919      C1934   1.263       .  A
O1919     Al1927   1.892       .  S
C1920      O1930   1.263       .  A
C1920      O1921   1.255       .  A
C1920      C1989   1.481       .  S
O1921     Al1923   1.905       .  S
O1922      C1924   1.261       .  A
O1922     Al1923   1.876       .  S
Al1923     O1931   1.842       .  S
Al1923     O1933   1.890       .  S
Al1923     O1932   1.787       .  S
C1924      O1937   1.274       .  A
C1924      C1993   1.476       .  S
O1925      C1935   1.262       .  A
O1925     Al1927   1.880       .  S
O1926      C1939   1.262       .  A
O1926     Al1936   1.917       .  S
Al1927     O1940   1.945       .  S
Al1927     O1937   1.968       .  S
Al1927     O1932   1.782       .  S
O1928      C1935   1.266       .  A
O1928     Al1936   1.908       .  S
O1929      C1938   1.267       .  A
O1929     Al1936   1.936       .  S
O1930     Al1936   1.925       .  S
O1931      C1938   1.255       .  A
O1932     Al1936   1.777       .  S
O1933      C1934   1.251       .  A
C1934      C1997   1.443       .  S
C1935      C2122   1.452       .  S
C1938      C2030   1.454       .  S
C1939      O1940   1.265       .  A
C1939      C2134   1.499       .  S
O1941      C1956   1.269       .  A
O1941     Al1949   1.954       .  S
C1942      O1952   1.258       .  A
C1942      O1943   1.265       .  A
C1942      C2001   1.481       .  S
O1943     Al1945   1.925       .  S
O1944      C1946   1.270       .  A
O1944     Al1945   1.935       .  S
Al1945     O1953   1.969       .  S
Al1945     O1955   1.935       .  S
Al1945     O1954   1.784       .  S
C1946      O1959   1.257       .  A
C1946      C2042   1.451       .  S
O1947      C1957   1.272       .  A
O1947     Al1949   1.963       .  S
O1948      C1961   1.252       .  A
O1948     Al1958   1.895       .  S
Al1949     O1962   1.878       .  S
Al1949     O1959   1.867       .  S
Al1949     O1954   1.767       .  S
O1950      C1957   1.261       .  A
O1950     Al1958   1.882       .  S
O1951      C1960   1.252       .  A
O1951     Al1958   1.840       .  S
O1952     Al1958   1.913       .  S
O1953      C1960   1.273       .  A
O1954     Al1958   1.784       .  S
O1955      C1956   1.268       .  A
C1956      C2010   1.510       .  S
C1957      C1990   1.477       .  S
C1960      C2138   1.468       .  S
C1961      O1962   1.262       .  A
C1961      C1985   1.438       .  S
O1963      C1978   1.268       .  A
O1963     Al1971   1.963       .  S
C1964      O1974   1.257       .  A
C1964      O1965   1.264       .  A
C1964      C1994   1.479       .  S
O1966      C1968   1.264       .  A
Al1967     O1975   1.938       .  S
Al1967     O1977   1.930       .  S
Al1967     O1976   1.777       .  S
C1968      C2018   1.449       .  S
O1969     Al1971   1.972       .  S
O1970      C1983   1.252       .  A
O1970     Al1980   1.895       .  S
Al1971     O1984   1.875       .  S
Al1971     O1981   1.866       .  S
Al1971     O1976   1.779       .  S
O1972      C1979   1.263       .  A
O1973      C1982   1.255       .  A
O1973     Al1980   1.847       .  S
O1975      C1982   1.268       .  A
O1976     Al1980   1.793       .  S
O1977      C1978   1.265       .  A
C1978      C2025   1.513       .  S
C1979      C2006   1.487       .  S
C1982      C2161   1.462       .  S
C1983      O1984   1.261       .  A
C1983      C1986   1.440       .  S
C1985      C1986   1.322       .  D
C1985      H1987   1.088       .  S
C1986      H1988   1.088       .  S
C1989      C1990   1.354       .  D
C1989      H1991   1.088       .  S
C1990      H1992   1.088       .  S
C1993      C1994   1.354       .  D
C1993      H1995   1.086       .  S
C1994      H1996   1.087       .  S
C1997      H1999   1.088       .  S
C1998      H2000   1.087   1_455  S
C2001      C2002   1.354       .  D
C2001      H2003   1.087       .  S
C2002      H2004   1.087       .  S
C2005      C2006   1.356       .  D
C2005      H2007   1.086       .  S
C2009      C2010   1.359       .  D
C2009      H2011   1.086       .  S
C2010      H2012   1.086       .  S
C2013      C2014   1.341       .  D
C2013      H2015   1.087       .  S
C2014      H2016   1.087       .  S
C2017      C2018   1.346       .  D
C2017      H2019   1.086       .  S
C2018      H2020   1.088       .  S
C2021      C2022   1.352       .  D
C2021      H2023   1.087       .  S
C2022      H2024   1.088       .  S
C2025      C2026   1.362       .  D
C2025      H2027   1.086       .  S
C2026      H2028   1.086       .  S
C2029      C2030   1.341       .  D
C2029      H2031   1.088       .  S
C2030      H2032   1.086       .  S
C2033      C2034   1.325       .  D
C2033      H2035   1.087       .  S
C2034      H2036   1.088       .  S
C2037      C2038   1.351       .  D
C2037      H2039   1.087       .  S
C2038      H2040   1.086       .  S
C2041      C2042   1.347       .  D
C2041      H2043   1.086       .  S
C2042      H2044   1.087       .  S
C2045      C2046   1.329       .  D
C2045      H2047   1.088       .  S
C2046      H2048   1.089       .  S
C2049      C2050   1.357       .  D
C2049      H2051   1.086       .  S
C2050      H2052   1.085       .  S
C2053      C2054   1.351       .  D
C2053      H2055   1.087       .  S
C2054      H2056   1.088       .  S
C2057      C2058   1.345       .  D
C2057      H2059   1.087       .  S
C2058      H2060   1.087       .  S
C2061      C2062   1.354       .  D
C2061      H2063   1.086       .  S
C2062      H2064   1.087       .  S
C2065      C2066   1.331       .  D
C2066      H2068   1.087       .  S
C2069      C2070   1.357       .  D
C2069      H2071   1.087       .  S
C2070      H2072   1.086       .  S
C2073      C2074   1.340       .  D
C2073      H2075   1.087       .  S
C2074      H2076   1.087       .  S
C2077      C2078   1.352       .  D
C2077      H2079   1.087       .  S
C2078      H2080   1.086       .  S
C2081      C2082   1.350       .  D
C2081      H2083   1.087       .  S
C2082      H2084   1.087       .  S
C2085      C2086   1.355       .  D
C2085      H2087   1.087       .  S
C2086      H2088   1.086   1_556  S
C2089      C2090   1.350       .  D
C2089      H2091   1.088       .  S
C2090      H2092   1.086       .  S
C2093      C2094   1.325       .  D
C2093      H2095   1.087       .  S
C2094      H2096   1.088       .  S
C2097      H2099   1.087       .  S
C2098      H2100   1.087       .  S
C2101      C2102   1.352       .  D
C2101      H2103   1.087       .  S
C2102      H2104   1.086       .  S
C2105      C2106   1.361       .  D
C2105      H2107   1.086       .  S
C2106      H2108   1.086       .  S
C2109      C2110   1.346       .  D
C2109      H2111   1.087       .  S
C2110      H2112   1.086       .  S
C2113      C2114   1.344       .  D
C2113      H2115   1.087       .  S
C2117      C2118   1.351       .  D
C2117      H2119   1.087       .  S
C2118      H2120   1.087       .  S
C2121      C2122   1.352       .  D
C2121      H2123   1.086       .  S
C2122      H2124   1.088       .  S
C2125      C2126   1.350       .  D
C2125      H2127   1.086       .  S
C2126      H2128   1.086       .  S
C2129      C2130   1.327       .  D
C2129      H2131   1.089       .  S
C2130      H2132   1.088       .  S
C2133      C2134   1.356       .  D
C2134      H2136   1.086       .  S
C2137      C2138   1.350       .  D
C2137      H2139   1.088       .  S
C2138      H2140   1.086       .  S
C2141      C2142   1.349       .  D
C2141      H2143   1.087       .  S
C2142      H2144   1.086       .  S
C2145      C2146   1.350       .  D
C2145      H2147   1.087       .  S
C2146      H2148   1.088       .  S
C2149      C2150   1.360       .  D
C2149      H2151   1.086       .  S
C2150      H2152   1.087       .  S
C2153      C2154   1.358       .  D
C2154      H2156   1.086       .  S
C2157      C2158   1.354       .  D
C2158      H2160   1.087       .  S
C2161      C2162   1.344       .  D
C2161      H2163   1.087       .  S
C2162      H2164   1.088       .  S
C2165      H2167   1.089       .  S
C2166      H2168   1.087       .  S
C2169      H2171   1.086       .  S
C2170      H2172   1.086       .  S
C2173      C2174   1.356       .  D
C2173      H2175   1.087       .  S
C2174      H2176   1.086       .  S
