geometry optimzed in LAMMPS
_audit_creation_date              2020-12-01 
_audit_creation_method            'lammps2cif' 
_symmetry_space_group_name_H-M    'P1' 
_symmetry_Int_Tables_number       1 
_symmetry_cell_setting            triclinic 
loop_ 
_symmetry_equiv_pos_as_xyz 
  x,y,z 
_cell_length_a                    59.03353052 
_cell_length_b                    58.59871625812017 
_cell_length_c                    41.209611667414755 
_cell_angle_alpha                 89.6427024773084 
_cell_angle_beta                  90.14946176894024 
_cell_angle_gamma                 120.42116606606594 
loop_ 
_atom_site_label 
_atom_site_type_symbol 
_atom_site_fract_x 
_atom_site_fract_y 
_atom_site_fract_z 
_atom_site_charge 
O1          O  0.22608557  0.08015833  0.33728564    -0.82900
C2          C  0.24879697  0.08573772  0.20291359     0.96400
O3          O  0.25912250  0.10339491  0.22416993    -0.72100
O4          O  0.22750854  0.11265801  0.25686895    -0.75600
Al5        Al  0.25474142  0.10636214  0.26889455     1.49000
C6          C  0.20587939  0.10477692  0.27084143     0.91700
O7          O  0.18075287  0.03692442  0.27129015    -0.81900
O8          O  0.24441000  0.03438895  0.29472920    -0.75400
Al9        Al  0.20596339  0.05972626  0.30190685     1.90100
O10         O  0.20358081  0.02020692  0.25214808    -0.74500
O11         O  0.27660719  0.07121234  0.24905745    -0.74300
O12         O  0.23526711  0.06147563  0.21168950    -0.80000
O13         O  0.28609157  0.10521715  0.27878545    -0.78200
O14         O  0.23330174  0.07167024  0.27497900    -1.14300
O15         O  0.25321610  0.11692651  0.31251482    -0.73500
C16         C  0.24009980  0.10488031  0.33744106     0.97200
C17         C  0.18170768  0.01824086  0.25799181     0.93600
Al18       Al  0.23939087  0.04866267  0.25396476     1.55600
O19         O  0.19643882  0.08529875  0.29003551    -0.78200
C20         C  0.29355113  0.09376853  0.25913078     0.97700
C21         C  0.22805903  0.02623177  0.31823879     0.92600
O22         O  0.21036871  0.03225220  0.31976660    -0.83500
O23         O  0.13285285  0.90806577  0.42842858    -0.82900
C24         C  0.16311757  0.92813899  0.05836548     0.96400
O25         O  0.15621910  0.90770216  0.04156618    -0.72100
O26         O  0.11582002  0.89011879  0.00450345    -0.75600
Al27       Al  0.15072698  0.89897615  0.99735826     1.49000
C28         C  0.09571413  0.89077297  0.49586158     0.91700
O29         O  0.13900791  0.96087123  0.48429134    -0.81900
O30         O  0.20324703  0.95932001  0.45759249    -0.75400
Al31       Al  0.13801174  0.93370426  0.45814240     1.90100
O32         O  0.18551529  0.98723037  0.99661355    -0.74500
O33         O  0.20744579  0.93800598  0.01750614    -0.74300
O34         O  0.17514054  0.95139840  0.04598169    -0.80000
O35         O  0.17801957  0.89382765  0.49224555    -0.78200
O36         O  0.15681829  0.92612726  0.48549051    -1.14300
O37         O  0.13449595  0.87712450  0.45689196    -0.73500
C38         C  0.12926435  0.88516483  0.43107296     0.97200
C39         C  0.16512426  0.98826721  0.99106430     0.93600
Al40       Al  0.19176453  0.95845421  0.00357204     1.55600
O41         O  0.10396190  0.91021831  0.47663091    -0.78200
C42         C  0.20251954  0.91477290  0.01258223     0.97700
C43         C  0.19304440  0.96391864  0.43278801     0.92600
O44         O  0.16893042  0.95760833  0.43289844    -0.83500
O45         O  0.42830711  0.88475132  0.25287020    -0.82900
C46         C  0.42125863  0.89658471  0.38563120     0.96400
O47         O  0.44168230  0.90853669  0.36816385    -0.72100
O48         O  0.45556344  0.88338660  0.32912813    -0.75600
Al49       Al  0.44925224  0.91150050  0.32319880     1.49000
C50         C  0.44683010  0.86129161  0.31593439     0.91700
O51         O  0.37820843  0.83911731  0.31299531    -0.81900
O52         O  0.38365532  0.90839327  0.29142392    -0.75400
Al53       Al  0.40423341  0.86489247  0.28511422     1.90100
O54         O  0.36086601  0.86256175  0.32666640    -0.74500
O55         O  0.41448262  0.93363456  0.34546033    -0.74300
O56         O  0.39817584  0.88687978  0.37396249    -0.80000
O57         O  0.45105669  0.94525493  0.32076315    -0.78200
O58         O  0.41535618  0.89142306  0.31331252    -1.14300
O59         O  0.46195771  0.91610060  0.27913425    -0.73500
C60         C  0.45199912  0.90256288  0.25369764     0.97200
C61         C  0.35859461  0.84029318  0.32175504     0.93600
Al62       Al  0.39145386  0.89740993  0.33241346     1.55600
O63         O  0.42612295  0.85143589  0.29933722    -0.78200
C64         C  0.43806712  0.95089285  0.34007872     0.97700
C65         C  0.37702373  0.89385476  0.26618715     0.92600
O66         O  0.38106911  0.87453437  0.26424750    -0.83500
O67         O  0.26372955  0.80397744  0.16074881    -0.82900
C68         C  0.26507789  0.83518546  0.03201012     0.96400
O69         O  0.24601357  0.82491903  0.05169168    -0.72100
O70         O  0.23220403  0.78247649  0.08608818    -0.75600
Al71       Al  0.24118030  0.81741334  0.09655726     1.49000
C72         C  0.24083304  0.76769136  0.09469198     0.91700
O73         O  0.31196797  0.81421574  0.09395875    -0.81900
O74         O  0.30950433  0.87581993  0.12964496    -0.75400
Al75       Al  0.28672480  0.81110692  0.12582483     1.90100
O76         O  0.32767983  0.85582251  0.08506598    -0.74500
O77         O  0.27751560  0.87668484  0.08102137    -0.74300
O78         O  0.28879631  0.84776130  0.04237678    -0.80000
O79         O  0.24225743  0.84992841  0.10630152    -0.78200
O80         O  0.27522357  0.82945651  0.10300438    -1.14300
O81         O  0.23116518  0.80721263  0.13988227    -0.73500
C82         C  0.24111765  0.80092103  0.16275817     0.97200
C83         C  0.33070282  0.83618058  0.08478277     0.93600
Al84       Al  0.29872286  0.86103467  0.08639003     1.55600
O85         O  0.26296978  0.77716486  0.10810540    -0.78200
C86         C  0.25501836  0.87080926  0.08994118     0.97700
C87         C  0.31703587  0.86562401  0.15164199     0.92600
O88         O  0.31206211  0.84187802  0.14954679    -0.83500
O89         O  0.54986704  0.12158609  0.99821803    -0.82900
C90         C  0.52021593  0.08807888  0.37225504     0.96400
O91         O  0.53852626  0.09238080  0.39171116    -0.72100
O92         O  0.57133040  0.11687616  0.43942373    -0.75600
Al93       Al  0.53620841  0.08746702  0.43646354     1.49000
C94         C  0.58041642  0.14110450  0.43368232     0.91700
O95         O  0.52308385  0.15445884  0.43838807    -0.81900
O96         O  0.47208880  0.09987039  0.46239023    -0.75400
Al97       Al  0.53537282  0.13554944  0.46226986     1.90100
O98         O  0.49468205  0.12639441  0.40449351    -0.74500
O99         O  0.47241847  0.05670581  0.43547034    -0.74300
O100        O  0.49880284  0.08639302  0.38158007    -0.80000
O101        O  0.50694926  0.05362701  0.42914941    -0.78200
O102        O  0.51923014  0.10535730  0.44044469    -1.14300
O103        O  0.53527222  0.08137361  0.48253770    -0.73500
C104        C  0.54721269  0.10115724  0.50126388     0.97200
C105        C  0.50662903  0.14920395  0.41634621     0.93600
Al106      Al  0.48745003  0.09340116  0.42278927     1.55600
O107        O  0.56569796  0.15085709  0.43488435    -0.78200
C108        C  0.48254939  0.04318428  0.42692353     0.97700
C109        C  0.48301848  0.11312919  0.48808505     0.92600
O110        O  0.50757937  0.12431960  0.49168116    -0.83500
O111        O  0.46103980  0.21737003  0.10414365    -0.82900
C112        C  0.43875516  0.17801935  0.22798743     0.96400
O113        O  0.44503243  0.19932890  0.21299776    -0.72100
O114        O  0.46518274  0.23608024  0.16772379    -0.75600
Al115      Al  0.43474021  0.20218762  0.17068533     1.49000
C116        C  0.48915787  0.24395786  0.16483792     0.91700
O117        O  0.49433104  0.18294052  0.14471730    -0.81900
O118        O  0.43678223  0.13595658  0.12565128    -0.75400
Al119      Al  0.47516734  0.19858332  0.12727058     1.90100
O120        O  0.46779388  0.15454413  0.18033473    -0.74500
O121        O  0.39790007  0.13853407  0.16042408    -0.74300
O122        O  0.43121694  0.15651810  0.21311713    -0.80000
O123        O  0.40065556  0.17394200  0.17970452    -0.78200
O124        O  0.44801205  0.18309879  0.15499590    -1.14300
O125        O  0.42374905  0.20686565  0.12897540    -0.73500
C126        C  0.43953358  0.21734664  0.10536756     0.97200
C127        C  0.49009240  0.16668293  0.16734775     0.93600
Al128      Al  0.43462223  0.14941539  0.16826219     1.55600
O129        O  0.49638286  0.22845884  0.15459516    -0.78200
C130        C  0.38714690  0.14951915  0.17527466     0.97700
C131        C  0.44735859  0.14665570  0.09864278     0.92600
O132        O  0.45927694  0.17151448  0.09557577    -0.83500
O133        O  0.46910179  0.29610942  0.35098220    -0.82900
C134        C  0.43646466  0.25761107  0.47284580     0.96400
O135        O  0.44766667  0.28015894  0.45912487    -0.72100
O136        O  0.47595818  0.31521394  0.41285543    -0.75600
Al137      Al  0.44044238  0.28591248  0.41550599     1.49000
C138        C  0.49774759  0.31605109  0.41196554     0.91700
O139        O  0.48380105  0.24578814  0.39110252    -0.81900
O140        O  0.42734866  0.21259873  0.37219771    -0.75400
Al141      Al  0.47426316  0.27059122  0.37459592     1.90100
O142        O  0.45460928  0.22366909  0.42834116    -0.74500
O143        O  0.39426833  0.22628990  0.40109239    -0.74300
O144        O  0.42342980  0.23648084  0.45692360    -0.80000
O145        O  0.40314420  0.26288181  0.42426017    -0.78200
O146        O  0.44701757  0.26120558  0.40091962    -1.14300
O147        O  0.43329952  0.29342113  0.37191722    -0.73500
C148        C  0.45004073  0.30031980  0.34896095     0.97200
C149        C  0.47406870  0.22735932  0.41186627     0.93600
Al150      Al  0.42655864  0.22781000  0.41328781     1.55600
O151        O  0.49886049  0.29605844  0.40366141    -0.78200
C152        C  0.38648476  0.23909092  0.41773757     0.97700
C153        C  0.43990695  0.22218995  0.34602646     0.92600
O154        O  0.45435170  0.24671716  0.34228602    -0.83500
O155        O  0.50954466  0.37181122  0.23892608    -0.82900
C156        C  0.52465041  0.40868039  0.11535676     0.96400
O157        O  0.51236539  0.38568629  0.12794598    -0.72100
O158        O  0.50302099  0.35075532  0.17603797    -0.75600
Al159      Al  0.49511778  0.37832071  0.16926501     1.49000
C160        C  0.52402364  0.35098869  0.18189801     0.91700
O161        O  0.57640270  0.42220449  0.20256745    -0.81900
O162        O  0.54231090  0.45270353  0.21867635    -0.75400
Al163      Al  0.54157534  0.39739773  0.21737305     1.90100
O164        O  0.57016474  0.44801869  0.17015900    -0.74500
O165        O  0.50157828  0.43615418  0.17759772    -0.74300
O166        O  0.53104410  0.42932314  0.13151305    -0.80000
O167        O  0.47852001  0.39792930  0.15489764    -0.78200
O168        O  0.52404872  0.40497219  0.18781680    -1.14300
O169        O  0.47630612  0.36898539  0.21022644    -0.73500
C170        C  0.48521079  0.36397004  0.23594018     0.97200
C171        C  0.58538750  0.44243215  0.18461500     0.93600
Al172      Al  0.53501753  0.43824505  0.17576953     1.55600
O173        O  0.54371953  0.37172538  0.19172471    -0.78200
C174        C  0.48288674  0.42105918  0.15928554     0.97700
C175        C  0.54696187  0.44456055  0.24489784     0.92600
O176        O  0.54376941  0.42179676  0.24756459    -0.83500
O177        O  0.37850079  0.49193362  0.02318328    -0.82900
C178        C  0.42414023  0.50403248  0.14666928     0.96400
O179        O  0.40342288  0.48365251  0.13685871    -0.72100
O180        O  0.36214910  0.48448726  0.11329652    -0.75600
Al181      Al  0.38521892  0.47356906  0.09586008     1.49000
C182        C  0.35102370  0.49499982  0.09859858     0.91700
O183        O  0.40826949  0.55182429  0.07835722    -0.81900
O184        O  0.44814906  0.52177463  0.03580493    -0.75400
Al185      Al  0.39365520  0.52066133  0.05206510     1.90100
O186        O  0.44758198  0.55638874  0.08002513    -0.74500
O187        O  0.44388289  0.49013205  0.08717252    -0.74300
O188        O  0.43887535  0.52248143  0.12737468    -0.80000
O189        O  0.40432549  0.45633982  0.08377161    -0.78200
O190        O  0.40671672  0.50484508  0.07680018    -1.14300
O191        O  0.36357355  0.45805889  0.05689758    -0.73500
C192        C  0.36478028  0.46741898  0.02854980     0.97200
C193        C  0.43289544  0.56621008  0.08173991     0.93600
Al194      Al  0.44150350  0.52109725  0.08195576     1.55600
O195        O  0.36113007  0.50801035  0.07324079    -0.78200
C196        C  0.42850837  0.46547929  0.08848658     0.97700
C197        C  0.44080090  0.53349918  0.01608445     0.92600
O198        O  0.42231424  0.53719064  0.02344097    -0.83500
O199        O  0.30324231  0.46104400  0.40441854    -0.82900
C200        C  0.25447092  0.42470882  0.28909367     0.96400
O201        O  0.27853981  0.43674151  0.29790540    -0.72100
O202        O  0.31991446  0.46742023  0.33750736    -0.75600
Al203      Al  0.29057638  0.43190386  0.33908540     1.49000
C204        C  0.32178594  0.48957013  0.34052881     0.91700
O205        O  0.25436241  0.47646199  0.36305287    -0.81900
O206        O  0.22433514  0.41185493  0.40102703    -0.75400
Al207      Al  0.27797619  0.46699046  0.38149421     1.90100
O208        O  0.22136175  0.43820750  0.34791983    -0.74500
O209        O  0.23631537  0.38311197  0.36282121    -0.74300
O210        O  0.23567245  0.41209226  0.30911395    -0.80000
O211        O  0.26969174  0.39468870  0.33210991    -0.78200
O212        O  0.26677823  0.43748379  0.35888925    -1.14300
O213        O  0.30324268  0.42698802  0.38049467    -0.73500
C214        C  0.30994129  0.44346555  0.40386100     0.97200
C215        C  0.23136090  0.46270105  0.35223523     0.93600
Al216      Al  0.23257233  0.41339317  0.35546603     1.55600
O217        O  0.30259844  0.49072396  0.35091844    -0.78200
C218        C  0.24819088  0.37669732  0.34298418     0.97700
C219        C  0.23463526  0.42992721  0.42199799     0.92600
O220        O  0.25548667  0.45089947  0.41571632    -0.83500
O221        O  0.17821315  0.20470222  0.18759084    -0.82900
C222        C  0.16249567  0.23277617  0.30683126     0.96400
O223        O  0.17589473  0.22301162  0.29579663    -0.72100
O224        O  0.18732079  0.19717289  0.25094609    -0.75600
Al225      Al  0.19220888  0.23144656  0.25370649     1.49000
C226        C  0.16717329  0.17465847  0.24956422     0.91700
O227        O  0.11040218  0.18474079  0.22254204    -0.81900
O228        O  0.14142217  0.24913517  0.19960127    -0.75400
Al229      Al  0.14571670  0.19690924  0.20844804     1.90100
O230        O  0.11412203  0.21818614  0.24991799    -0.74500
O231        O  0.18142204  0.27884086  0.23945882    -0.74300
O232        O  0.15380727  0.24415142  0.28871947    -0.80000
O233        O  0.20634922  0.26751923  0.26436936    -0.78200
O234        O  0.16202018  0.22472234  0.23499563    -1.14300
O235        O  0.20998583  0.24022625  0.21218115    -0.73500
C236        C  0.20170763  0.22414521  0.18838193     0.97200
C237        C  0.10003310  0.19579988  0.23757969     0.93600
Al238      Al  0.14905210  0.24560972  0.24346983     1.55600
O239        O  0.14620238  0.17219336  0.23862948    -0.78200
C240        C  0.20031657  0.28470157  0.25843273     0.97700
C241        C  0.13732528  0.23495406  0.17487788     0.92600
O242        O  0.14158114  0.21601313  0.17487449    -0.83500
O243        O  0.21728850  0.17146926  0.07531923    -0.82900
C244        C  0.23604062  0.15597995  0.45051224     0.96400
O245        O  0.22772689  0.17022971  0.46343805    -0.72100
O246        O  0.20222577  0.18096451  0.51183477    -0.75600
Al247      Al  0.23622273  0.18383734  0.50717421     1.49000
C248        C  0.17925137  0.16147562  0.51367650     0.91700
O249        O  0.19203135  0.10791068  0.02723609    -0.81900
O250        O  0.25839482  0.13376763  0.05433252    -0.75400
Al251      Al  0.20707406  0.14094442  0.04908920     1.90100
O252        O  0.22597803  0.10993093  0.00418786    -0.74500
O253        O  0.28834347  0.17456136  0.01791554    -0.74300
O254        O  0.24648696  0.14525227  0.46683145    -0.80000
O255        O  0.28060840  0.20411102  0.99843629    -0.78200
O256        O  0.23530237  0.15846702  0.02337169    -1.14300
O257        O  0.25117179  0.20595512  0.05136040    -0.73500
C258        C  0.23532885  0.19564913  0.07540724     0.97200
C259        C  0.20199005  0.09713378  0.01099615     0.93600
Al260      Al  0.25461652  0.14394111  0.01228265     1.55600
O261        O  0.18395969  0.14733064  0.02335315    -0.78200
C262        C  0.29611295  0.19550519  0.00201014     0.97700
C263        C  0.24382875  0.12710893  0.07883365     0.92600
O264        O  0.22397438  0.12986154  0.07969241    -0.83500
O265        O  0.79465578  0.24606320  0.10191865    -0.82900
C266        C  0.82682851  0.24839845  0.22403837     0.96400
O267        O  0.80854681  0.23314120  0.20525335    -0.72100
O268        O  0.77564149  0.22330594  0.15792402    -0.75600
Al269      Al  0.81030003  0.22845661  0.16084353     1.49000
C270        C  0.76722865  0.23914908  0.16103045     0.91700
O271        O  0.82680325  0.31019573  0.14627597    -0.81900
O272        O  0.87412014  0.30445564  0.13062266    -0.75400
Al273      Al  0.81235907  0.27626245  0.12791561     1.90100
O274        O  0.84993407  0.30953295  0.18640220    -0.74500
O275        O  0.87427446  0.26299620  0.16141124    -0.74300
O276        O  0.84810293  0.26797874  0.21359194    -0.80000
O277        O  0.83974718  0.22456712  0.16893852    -0.78200
O278        O  0.82758863  0.26323700  0.15344216    -1.14300
O279        O  0.81030893  0.22062891  0.11531866    -0.73500
C280        C  0.79814538  0.22717457  0.09530998     0.97200
C281        C  0.84052479  0.32120429  0.17068694     0.93600
Al282      Al  0.85888016  0.28443966  0.17122748     1.55600
O283        O  0.78228334  0.26372810  0.15604562    -0.78200
C284        C  0.86424450  0.23920153  0.17052894     0.97700
C285        C  0.86449670  0.30377271  0.10255723     0.92600
O286        O  0.84008998  0.28960933  0.09755107    -0.83500
O287        O  0.89022886  0.43607465  0.99329836    -0.82900
C288        C  0.91172717  0.42271507  0.36807396     0.96400
O289        O  0.90568609  0.43677377  0.38448741    -0.72100
O290        O  0.88474108  0.45040823  0.42957565    -0.75600
Al291      Al  0.91505514  0.44642114  0.42732309     1.49000
C292        C  0.86041865  0.43372220  0.43159932     0.91700
O293        O  0.85225596  0.36627408  0.45447963    -0.81900
O294        O  0.90176238  0.37091509  0.46593268    -0.75400
Al295      Al  0.87294183  0.40209797  0.47028031     1.90100
O296        O  0.87316789  0.36818192  0.41028123    -0.74500
O297        O  0.94408084  0.41136362  0.43631058    -0.74300
O298        O  0.91530174  0.40527089  0.38134306    -0.80000
O299        O  0.94849505  0.44903326  0.42024738    -0.78200
O300        O  0.89890861  0.41318832  0.44120332    -1.14300
O301        O  0.92611085  0.46023053  0.46914561    -0.73500
C302        C  0.91020124  0.45622855  0.49180012     0.97200
C303        C  0.85318841  0.35617945  0.42788710     0.93600
Al304      Al  0.90766831  0.39066025  0.42511539     1.55600
O305        O  0.85240432  0.41089435  0.44301830    -0.78200
C306        C  0.95817474  0.43422923  0.42427856     0.97700
C307        C  0.89667108  0.37433807  0.49491735     0.92600
O308        O  0.89035335  0.39158351  0.50065960    -0.83500
O309        O  0.92603180  0.13497518  0.33200239    -0.82900
C310        C  0.92902544  0.16032073  0.20161895     0.96400
O311        O  0.90843842  0.14976177  0.21901334    -0.72100
O312        O  0.89551508  0.10778144  0.25388142    -0.75600
Al313      Al  0.90196206  0.14186248  0.26418705     1.49000
C314        C  0.90330345  0.09337778  0.26621751     0.91700
O315        O  0.97235505  0.14112879  0.26443252    -0.81900
O316        O  0.96789642  0.20298902  0.29974543    -0.75400
Al317      Al  0.94810379  0.13918795  0.29719115     1.90100
O318        O  0.98901852  0.18331044  0.25723747    -0.74500
O319        O  0.93607688  0.20116992  0.24826292    -0.74300
O320        O  0.95190723  0.17401305  0.21358661    -0.80000
O321        O  0.89985708  0.17309093  0.27161358    -0.78200
O322        O  0.93599150  0.15595521  0.27277665    -1.14300
O323        O  0.89098224  0.13117653  0.30831296    -0.73500
C324        C  0.90227702  0.12866387  0.33314396     0.97200
C325        C  0.99103212  0.16301016  0.25455516     0.93600
Al326      Al  0.95914489  0.18769324  0.25657514     1.55600
O327        O  0.92397118  0.10349226  0.28302489    -0.78200
C328        C  0.91238843  0.19338147  0.25405992     0.97700
C329        C  0.97701851  0.19407367  0.32139058     0.92600
O330        O  0.97406684  0.17109790  0.31884423    -0.83500
O331        O  0.09587751  0.21403263  0.43401080    -0.82900
C332        C  0.09710438  0.24324481  0.05321085     0.96400
O333        O  0.11212220  0.24151710  0.03286880    -0.72100
O334        O  0.12246968  0.22130840  0.98276776    -0.75600
Al335      Al  0.11444883  0.24872825  0.98857481     1.49000
C336        C  0.10602424  0.19760945  0.49488854     0.91700
O337        O  0.03401217  0.18368026  0.48333993    -0.81900
O338        O  0.04054713  0.23880677  0.46244374    -0.75400
Al339      Al  0.06713125  0.20301287  0.46236667     1.90100
O340        O  0.03540000  0.20417407  0.02043502    -0.74500
O341        O  0.07776369  0.27507684  0.99260844    -0.74300
O342        O  0.07695717  0.24444349  0.04475929    -0.80000
O343        O  0.12046979  0.28618489  0.49358112    -0.78200
O344        O  0.08102071  0.23310557  0.48500347    -1.14300
O345        O  0.12148858  0.25633097  0.44260048    -0.73500
C346        C  0.11447454  0.23613032  0.42492102     0.97200
C347        C  0.02418586  0.18195171  0.00732239     0.93600
Al348      Al  0.05865791  0.23812769  0.00366948     1.55600
O349        O  0.08135912  0.18726463  0.49130394    -0.78200
C350        C  0.10113504  0.28994783  0.00133328     0.97700
C351        C  0.04007683  0.22807881  0.43529238     0.92600
O352        O  0.05234659  0.21575158  0.43153495    -0.83500
O353        O  0.12490803  0.53716294  0.26323260    -0.82900
C354        C  0.10485279  0.51048526  0.39252065     0.96400
O355        O  0.09476631  0.52075292  0.37479597    -0.72100
O356        O  0.12128180  0.56062799  0.33643173    -0.75600
Al357      Al  0.09330551  0.52633370  0.32976310     1.49000
C358        C  0.14453826  0.57445726  0.32701570     0.91700
O359        O  0.16413205  0.52371521  0.32419866    -0.81900
O360        O  0.09523536  0.46380777  0.29589192    -0.75400
Al361      Al  0.14132849  0.52849133  0.29565643     1.90100
O362        O  0.13717537  0.48238358  0.33542524    -0.74500
O363        O  0.06800592  0.46777701  0.34965349    -0.74300
O364        O  0.11287194  0.49560165  0.38114200    -0.80000
O365        O  0.05954864  0.49532587  0.32570734    -0.78200
O366        O  0.11287354  0.51197745  0.32107610    -1.14300
O367        O  0.09007457  0.53472064  0.28578530    -0.73500
C368        C  0.10564480  0.54065853  0.26211154     0.97200
C369        C  0.16018547  0.50142137  0.33269017     0.93600
Al370      Al  0.10403598  0.48028686  0.33851875     1.55600
O371        O  0.15586627  0.56367172  0.31344374    -0.78200
C372        C  0.05237446  0.47595638  0.34450458     0.97700
C373        C  0.11127691  0.47280879  0.27189163     0.92600
O374        O  0.13089255  0.49635020  0.27188131    -0.83500
O375        O  0.19864573  0.44797960  0.17285715    -0.82900
C376        C  0.18038311  0.43360353  0.03979523     0.96400
O377        O  0.18704996  0.42038081  0.05766169    -0.72100
O378        O  0.22736749  0.44701507  0.09409595    -0.75600
Al379      Al  0.19287476  0.42001551  0.10290930     1.49000
C380        C  0.24225648  0.46754809  0.10962598     0.91700
O381        O  0.19831376  0.49380294  0.10864741    -0.81900
O382        O  0.13253649  0.42678110  0.13378356    -0.75400
Al383      Al  0.19694648  0.46829085  0.13882442     1.90100
O384        O  0.15701439  0.47090030  0.09499233    -0.74500
O385        O  0.13603875  0.39837779  0.08161726    -0.74300
O386        O  0.16774693  0.44417713  0.05077100    -0.80000
O387        O  0.16038006  0.38739906  0.10890348    -0.78200
O388        O  0.18042191  0.44119433  0.11159672    -1.14300
O389        O  0.20239448  0.41762418  0.14667239    -0.73500
C390        C  0.20559327  0.43099810  0.17198029     0.97200
C391        C  0.17791739  0.49287331  0.09783362     0.93600
Al392      Al  0.15073608  0.43543498  0.09233300     1.55600
O393        O  0.23267415  0.47862548  0.12641338    -0.78200
C394        C  0.14203519  0.38117224  0.08883870     0.97700
C395        C  0.14102587  0.44279809  0.15768883     0.92600
O396        O  0.16459624  0.46203429  0.15839393    -0.83500
O397        O  0.88245206  0.50697738  0.23854349    -0.82900
C398        C  0.91382664  0.49709890  0.11700793     0.96400
O399        O  0.90203539  0.50918753  0.12670951    -0.72100
O400        O  0.87249300  0.51888781  0.17085241    -0.75600
Al401      Al  0.90738465  0.52504097  0.16952232     1.49000
C402        C  0.85045355  0.49927503  0.17699869     0.91700
O403        O  0.86263023  0.44261829  0.19288116    -0.81900
O404        O  0.92974023  0.47842084  0.22606245    -0.75400
Al405      Al  0.87402602  0.47609086  0.21339346     1.90100
O406        O  0.90048085  0.44866075  0.17673081    -0.74500
O407        O  0.95758241  0.51904262  0.18383304    -0.74300
O408        O  0.92347494  0.48804099  0.13705799    -0.80000
O409        O  0.94382588  0.54240694  0.15971815    -0.78200
O410        O  0.90234159  0.49507154  0.18827621    -1.14300
O411        O  0.91365968  0.54201064  0.21178697    -0.73500
C412        C  0.89957328  0.53157491  0.23721318     0.97200
C413        C  0.87655855  0.43343326  0.18260083     0.93600
Al414      Al  0.92561438  0.48468338  0.18158722     1.55600
O415        O  0.84887336  0.47852123  0.18738757    -0.78200
C416        C  0.96213389  0.53813886  0.16525148     0.97700
C417        C  0.91194392  0.46763008  0.24736457     0.92600
O418        O  0.89094619  0.46769931  0.24471730    -0.83500
O419        O  0.83970388  0.53818451  0.34755995    -0.82900
C420        C  0.82331142  0.55810199  0.47137528     0.96400
O421        O  0.83579608  0.54805245  0.45847372    -0.72100
O422        O  0.84572846  0.52388545  0.40969374    -0.75600
Al423      Al  0.85291741  0.55921388  0.41694021     1.49000
C424        C  0.82464655  0.50258417  0.40435742     0.91700
O425        O  0.77175757  0.51951157  0.38112147    -0.81900
O426        O  0.80342582  0.58287365  0.36763537    -0.75400
Al427      Al  0.80718193  0.53067899  0.36804911     1.90100
O428        O  0.77663633  0.54916120  0.41640017    -0.74500
O429        O  0.84417231  0.60876370  0.40800346    -0.74300
O430        O  0.81611374  0.57171559  0.45510765    -0.80000
O431        O  0.86809416  0.59543847  0.43177930    -0.78200
O432        O  0.82364471  0.55548290  0.39826231    -1.14300
O433        O  0.87185968  0.57036655  0.37599118    -0.73500
C434        C  0.86363705  0.55635865  0.35029973     0.97200
C435        C  0.76199816  0.52927599  0.39973308     0.93600
Al436      Al  0.81144511  0.57623393  0.41045248     1.55600
O437        O  0.80478016  0.50293520  0.39436931    -0.78200
C438        C  0.86233804  0.61322573  0.42757367     0.97700
C439        C  0.80058147  0.57145525  0.34077911     0.92600
O440        O  0.80596681  0.55347813  0.33744689    -0.83500
O441        O  0.95300116  0.79031928  0.07554830    -0.82900
C442        C  0.91848986  0.75536783  0.45111422     0.96400
O443        O  0.93571354  0.75151662  0.46450832    -0.72100
O444        O  0.97354433  0.79291288  0.49405678    -0.75600
Al445      Al  0.94950606  0.75840249  0.50896592     1.49000
C446        C  0.98450863  0.81367009  0.51056236     0.91700
O447        O  0.92793083  0.82112334  0.01493495    -0.81900
O448        O  0.88511123  0.74731862  0.05047892    -0.75400
Al449      Al  0.94036954  0.80395065  0.04384794     1.90100
O450        O  0.88926523  0.78555214  0.00864495    -0.74500
O451        O  0.89525116  0.72440083  0.00003611    -0.74300
O452        O  0.90342393  0.76003843  0.46748644    -0.80000
O453        O  0.93285303  0.73007354  0.01602856    -0.78200
O454        O  0.93025003  0.77598355  0.01835506    -1.14300
O455        O  0.97225703  0.77403655  0.04664481    -0.73500
C456        C  0.96938888  0.78273848  0.07377045     0.97200
C457        C  0.90364400  0.81042652  0.00873461     0.93600
Al458      Al  0.89658082  0.75720039  0.00677225     1.55600
O459        O  0.97547294  0.82558442  0.02688991    -0.78200
C460        C  0.91027711  0.71523541  0.00423897     0.97700
C461        C  0.88974370  0.76483500  0.07150454     0.92600
O462        O  0.90844854  0.78838812  0.06812956    -0.83500
O463        O  0.04983530  0.83490817  0.18164405    -0.82900
C464        C  0.09708744  0.85205301  0.30342422     0.96400
O465        O  0.07583787  0.83151069  0.29495530    -0.72100
O466        O  0.03488928  0.82896947  0.26899739    -0.75600
Al467      Al  0.05798473  0.81791044  0.25469181     1.49000
C468        C  0.02587612  0.84213352  0.25642019     0.91700
O469        O  0.08523191  0.89594730  0.23395754    -0.81900
O470        O  0.12043773  0.85960230  0.19330776    -0.75400
Al471      Al  0.06815481  0.86430869  0.20903753     1.90100
O472        O  0.12377760  0.89904978  0.23236026    -0.74500
O473        O  0.11651796  0.83149364  0.25124817    -0.74300
O474        O  0.11313752  0.86836249  0.28315732    -0.80000
O475        O  0.07630752  0.79909780  0.24785376    -0.78200
O476        O  0.08018188  0.84784832  0.23418017    -1.14300
O477        O  0.03674916  0.80106899  0.21547496    -0.73500
C478        C  0.03601902  0.81047248  0.18763257     0.97200
C479        C  0.10989540  0.90963284  0.23597201     0.93600
Al480      Al  0.11516793  0.86290898  0.23909369     1.55600
O481        O  0.03690285  0.85569624  0.23174078    -0.78200
C482        C  0.09963133  0.80756797  0.25682853     0.97700
C483        C  0.11416759  0.87200178  0.17299624     0.92600
O484        O  0.09615960  0.87683781  0.17956753    -0.83500
O485        O  0.13053761  0.62570673  0.01150534    -0.82900
C486        C  0.10502273  0.58122300  0.13681090     0.96400
O487        O  0.10790301  0.60342005  0.12865060    -0.72100
O488        O  0.14828798  0.64229815  0.10180228    -0.75600
Al489      Al  0.11286659  0.62164470  0.08828162     1.49000
C490        C  0.16760017  0.65485918  0.08357263     0.91700
O491        O  0.16118940  0.59523632  0.06487872    -0.81900
O492        O  0.08810382  0.55762503  0.02626408    -0.75400
Al493      Al  0.14481711  0.61038780  0.03905736     1.90100
O494        O  0.12505626  0.55589147  0.06692174    -0.74500
O495        O  0.06461501  0.56345544  0.08234574    -0.74300
O496        O  0.10354248  0.56485723  0.11619882    -0.80000
O497        O  0.07577291  0.60508561  0.08231125    -0.78200
O498        O  0.11773110  0.59856021  0.06649689    -1.14300
O499        O  0.11777411  0.64369798  0.04905389    -0.73500
C500        C  0.12341602  0.64196882  0.01943636     0.97200
C501        C  0.14987723  0.57034935  0.06925547     0.93600
Al502      Al  0.09693540  0.56358064  0.07199206     1.55600
O503        O  0.16779857  0.64463787  0.05707543    -0.78200
C504        C  0.05926575  0.58130888  0.08899148     0.97700
C505        C  0.10637902  0.56240028  0.00630226     0.92600
O506        O  0.12945557  0.58052313  0.01227019    -0.83500
O507        O  0.18021885  0.72178178  0.41297179    -0.82900
C508        C  0.19328724  0.75754036  0.28333939     0.96400
O509        O  0.17414753  0.73601680  0.29353992    -0.72100
O510        O  0.17664236  0.69928836  0.32377716    -0.75600
Al511      Al  0.16314862  0.72105628  0.33613683     1.49000
C512        C  0.18324004  0.68697538  0.34260388     0.91700
O513        O  0.23781665  0.74502454  0.35524855    -0.81900
O514        O  0.20920590  0.78917022  0.39041888    -0.75400
Al515      Al  0.20834881  0.73376674  0.38350673     1.90100
O516        O  0.24319194  0.78477872  0.34714923    -0.74500
O517        O  0.17548754  0.78024650  0.33831305    -0.74300
O518        O  0.20931155  0.77466897  0.30231774    -0.80000
O519        O  0.14389106  0.73894143  0.34116245    -0.78200
O520        O  0.19258811  0.74477196  0.35526497    -1.14300
O521        O  0.14760230  0.70180678  0.37778107    -0.73500
C522        C  0.15625574  0.70540153  0.40706165     0.97200
C523        C  0.25178321  0.76875606  0.34555307     0.93600
Al524      Al  0.20778673  0.77918798  0.34596807     1.55600
O525        O  0.19432611  0.69777751  0.36874442    -0.78200
C526        C  0.15167735  0.76260015  0.33320236     0.97700
C527        C  0.22369265  0.78589666  0.41037373     0.92600
O528        O  0.22655773  0.76608092  0.40753939    -0.83500
O529        O  0.83449262  0.03642229  0.07397727    -0.82900
C530        C  0.85050540  0.08526332  0.45545961     0.96400
O531        O  0.83951032  0.06130476  0.46518748    -0.72100
O532        O  0.82836556  0.02071674  0.50691699    -0.75600
Al533      Al  0.82119798  0.04952494  0.50559032     1.49000
C534        C  0.84880169  0.01960856  0.51253990     0.91700
O535        O  0.90284146  0.08718593  0.04202331    -0.81900
O536        O  0.87779778  0.11991797  0.05937502    -0.75400
Al537      Al  0.86699230  0.06211273  0.05455720     1.90100
O538        O  0.89883587  0.11223464  0.00560927    -0.74500
O539        O  0.83360656  0.10748670  0.02486980    -0.74300
O540        O  0.85527037  0.10403855  0.47456153    -0.80000
O541        O  0.80861332  0.07245456  0.99668406    -0.78200
O542        O  0.85168532  0.07288096  0.02600242    -1.14300
O543        O  0.80299133  0.03870342  0.04756916    -0.73500
C544        C  0.81099146  0.03147224  0.07226680     0.97200
C545        C  0.91309190  0.10650616  0.02240634     0.93600
Al546      Al  0.86547498  0.10702990  0.01641084     1.55600
O547        O  0.86808770  0.03707978  0.02622962    -0.78200
C548        C  0.81448179  0.09540863  0.00557776     0.97700
C549        C  0.87907293  0.10925823  0.08547519     0.92600
O550        O  0.86840794  0.08461535  0.08748884    -0.83500
O551        O  0.78593566  0.94798116  0.17555146    -0.82900
C552        C  0.77095818  0.91174597  0.30610335     0.96400
O553        O  0.76875098  0.93094968  0.29552742    -0.72100
O554        O  0.80799471  0.96946388  0.26505820    -0.75600
Al555      Al  0.77265646  0.94717254  0.25315852     1.49000
C556        C  0.82689393  0.98208130  0.24613233     0.91700
O557        O  0.82515177  0.92627377  0.22597363    -0.81900
O558        O  0.74922314  0.87950443  0.20237578    -0.75400
Al559      Al  0.80412441  0.93645515  0.20217225     1.90100
O560        O  0.79258728  0.88598539  0.23621431    -0.74500
O561        O  0.73045999  0.88844727  0.25825872    -0.74300
O562        O  0.77509843  0.89766023  0.28707857    -0.80000
O563        O  0.73538695  0.92714344  0.24662317    -0.78200
O564        O  0.77958097  0.92478393  0.23314564    -1.14300
O565        O  0.77579805  0.96790834  0.21298460    -0.73500
C566        C  0.77962967  0.96487424  0.18309987     0.97200
C567        C  0.81697532  0.90258272  0.23405720     0.93600
Al568      Al  0.76307402  0.89074836  0.24452468     1.55600
O569        O  0.82637677  0.97226284  0.21871330    -0.78200
C570        C  0.72186757  0.90433021  0.25904542     0.97700
C571        C  0.76458089  0.88308033  0.17914112     0.92600
O572        O  0.78746461  0.90340673  0.17815841    -0.83500
O573        O  0.51471078  0.87085536  0.01981460    -0.82900
C574        C  0.50412284  0.91020244  0.13294329     0.96400
O575        O  0.51667453  0.89882776  0.12379845    -0.72100
O576        O  0.52688936  0.86836129  0.08333869    -0.75600
Al577      Al  0.53244465  0.90347983  0.08174581     1.49000
C578        C  0.50649895  0.84591768  0.08446636     0.91700
O579        O  0.44993602  0.85644953  0.05894204    -0.81900
O580        O  0.48309986  0.91908016  0.02129939    -0.75400
Al581      Al  0.48372274  0.86585108  0.04223118     1.90100
O582        O  0.45609382  0.89437619  0.07598002    -0.74500
O583        O  0.52494337  0.95102850  0.05839043    -0.74300
O584        O  0.49700736  0.92208805  0.11299490    -0.80000
O585        O  0.54822038  0.94093888  0.08838268    -0.78200
O586        O  0.50215953  0.89632709  0.06339360    -1.14300
O587        O  0.54851681  0.90803413  0.03921428    -0.73500
C588        C  0.53833209  0.89000780  0.01746463     0.97200
C589        C  0.44097650  0.87031497  0.06990248     0.93600
Al590      Al  0.49141199  0.91961096  0.06682270     1.55600
O591        O  0.48524826  0.84388732  0.07567950    -0.78200
C592        C  0.54369527  0.95839128  0.07805156     0.97700
C593        C  0.47619748  0.90113574  0.00012496     0.92600
O594        O  0.47775882  0.88110458  0.00637881    -0.83500
O595        O  0.55183462  0.82953830  0.40830760    -0.82900
C596        C  0.58076560  0.81221196  0.28538781     0.96400
O597        O  0.57943374  0.83231430  0.29349588    -0.72100
O598        O  0.53965670  0.83223826  0.31794654    -0.75600
Al599      Al  0.57387500  0.84508697  0.33351012     1.49000
C600        C  0.51870156  0.82315634  0.33331915     0.91700
O601        O  0.52193360  0.76852994  0.35430781    -0.81900
O602        O  0.59374324  0.80333297  0.39597331    -0.75400
Al603      Al  0.53809398  0.80002267  0.38029513     1.90100
O604        O  0.55710755  0.76452611  0.35506982    -0.74500
O605        O  0.61889818  0.83201202  0.34043161    -0.74300
O606        O  0.58000240  0.79585062  0.30587599    -0.80000
O607        O  0.61043084  0.86405792  0.34197159    -0.78200
O608        O  0.56629738  0.81563577  0.35456733    -1.14300
O609        O  0.56910707  0.86206534  0.37229108    -0.73500
C610        C  0.56193664  0.85384697  0.40140164     0.97200
C611        C  0.53257047  0.75451850  0.35110937     0.93600
Al612      Al  0.58592158  0.80048225  0.35020437     1.55600
O613        O  0.51649833  0.81146855  0.35966055    -0.78200
C614        C  0.62565769  0.85579694  0.33461541     0.97700
C615        C  0.57503662  0.79052483  0.41585665     0.92600
O616        O  0.55212443  0.78510253  0.40860368    -0.83500
O617        O  0.63781929  0.12970297  0.24283235    -0.82900
C618        C  0.60087776  0.10617441  0.12048829     0.96400
O619        O  0.62394049  0.11659516  0.13241685    -0.72100
O620        O  0.65974687  0.14235010  0.18002730    -0.75600
Al621      Al  0.63102458  0.10697368  0.17423081     1.49000
C622        C  0.66062546  0.16398677  0.18405946     0.91700
O623        O  0.59051322  0.14862908  0.20237836    -0.81900
O624        O  0.55908137  0.08095801  0.22538080    -0.75400
Al625      Al  0.61380530  0.13733263  0.21958879     1.90100
O626        O  0.56163585  0.11318696  0.17718476    -0.74500
O627        O  0.57329432  0.05587336  0.18269502    -0.74300
O628        O  0.58029655  0.09299472  0.13737361    -0.80000
O629        O  0.61084434  0.07060618  0.15974248    -0.78200
O630        O  0.60527453  0.11063825  0.19214814    -1.14300
O631        O  0.63937642  0.09752674  0.21616448    -0.73500
C632        C  0.64448780  0.11213779  0.24132185     0.97200
C633        C  0.56883490  0.13582212  0.18772945     0.93600
Al634      Al  0.57197243  0.08796383  0.18180362     1.55600
O635        O  0.64044441  0.16410944  0.19295740    -0.78200
C636        C  0.58743580  0.05221783  0.16306383     0.97700
C637        C  0.56680412  0.09583340  0.24995027     0.92600
O638        O  0.58872631  0.11675128  0.25054071    -0.83500
O639        O  0.71176647  0.16887408  0.35378360    -0.82900
C640        C  0.74782264  0.18051655  0.47737022     0.96400
O641        O  0.72513892  0.16779710  0.46445734    -0.72100
O642        O  0.68979935  0.15714505  0.41671528    -0.75600
Al643      Al  0.71912761  0.15226119  0.42208373     1.49000
C644        C  0.68794664  0.17735280  0.41269781     0.91700
O645        O  0.75707750  0.23548097  0.39486902    -0.81900
O646        O  0.79152737  0.20565463  0.37362480    -0.75400
Al647      Al  0.73481887  0.20076101  0.37741873     1.90100
O648        O  0.78484054  0.23023274  0.42458241    -0.74500
O649        O  0.77746758  0.16318483  0.41085320    -0.74300
O650        O  0.76872877  0.18870006  0.46106792    -0.80000
O651        O  0.74070292  0.13764421  0.43484649    -0.78200
O652        O  0.74407119  0.18318459  0.40502210    -1.14300
O653        O  0.71168286  0.13544881  0.37986967    -0.73500
C654        C  0.70615447  0.14482514  0.35490444     0.97200
C655        C  0.77750544  0.24499338  0.41213127     0.93600
Al656      Al  0.77737505  0.19563699  0.41634687     1.55600
O657        O  0.70755578  0.19870489  0.40391582    -0.78200
C658        C  0.76404042  0.14375086  0.42931760     0.97700
C659        C  0.78321892  0.21119754  0.34828512     0.92600
O660        O  0.76029002  0.20715971  0.34647239    -0.83500
O661        O  0.87615889  0.78760923  0.33262122    -0.82900
C662        C  0.85779613  0.77225282  0.19921154     0.96400
O663        O  0.86353211  0.75992370  0.21963910    -0.72100
O664        O  0.90186898  0.78379899  0.26031511    -0.75600
Al665      Al  0.86622437  0.75786706  0.26469790     1.49000
C666        C  0.91638722  0.80695714  0.27027944     0.91700
O667        O  0.87348043  0.83447465  0.27260754    -0.81900
O668        O  0.80735509  0.76960632  0.28969648    -0.75400
Al669      Al  0.87226319  0.80762597  0.29958746     1.90100
O670        O  0.83486717  0.81252548  0.25092781    -0.74500
O671        O  0.81082116  0.74021647  0.23892576    -0.74300
O672        O  0.84599164  0.78438495  0.20818519    -0.80000
O673        O  0.83237159  0.72620953  0.26686582    -0.78200
O674        O  0.85545299  0.78085967  0.27152474    -1.14300
O675        O  0.87177585  0.75244939  0.30862466    -0.73500
C676        C  0.87808310  0.76725628  0.33297732     0.97200
C677        C  0.85463334  0.83410812  0.25835454     0.93600
Al678      Al  0.82734562  0.77705967  0.24948158     1.55600
O679        O  0.90681112  0.81914617  0.28434745    -0.78200
C680        C  0.81495090  0.72179959  0.24607496     0.97700
C681        C  0.81589795  0.78320627  0.31574196     0.92600
O682        O  0.84011475  0.79981602  0.31979889    -0.83500
O683        O  0.79173599  0.88260471  0.43405097    -0.82900
C684        C  0.76463975  0.84340221  0.05737186     0.96400
O685        O  0.76889378  0.86329295  0.04089292    -0.72100
O686        O  0.78818242  0.89953717  0.99621553    -0.75600
Al687      Al  0.75957246  0.86362021  0.99789038     1.49000
C688        C  0.81671515  0.91117692  0.49349752     0.91700
O689        O  0.83249315  0.85675654  0.47237885    -0.81900
O690        O  0.78063717  0.80497439  0.45863691    -0.75400
Al691      Al  0.80921408  0.86757840  0.45708255     1.90100
O692        O  0.80729900  0.82959102  0.01014351    -0.74500
O693        O  0.73340926  0.79898668  0.99166306    -0.74300
O694        O  0.76492651  0.82393699  0.04416494    -0.80000
O695        O  0.73277000  0.83138799  0.50607721    -0.78200
O696        O  0.78332872  0.84940318  0.48574885    -1.14300
O697        O  0.75243270  0.86424121  0.45582484    -0.73500
C698        C  0.76821495  0.87742706  0.43337720     0.97200
C699        C  0.82687587  0.84156034  0.99137700     0.93600
Al700      Al  0.77101204  0.81726413  0.99908676     1.55600
O701        O  0.82718263  0.89816223  0.48417050    -0.78200
C702        C  0.71847562  0.80695390  0.00207040     0.97700
C703        C  0.78641304  0.81529004  0.43024411     0.92600
O704        O  0.79488798  0.83972653  0.42677706    -0.83500
O705        O  0.45875980  0.56362078  0.26545847    -0.82900
C706        C  0.49037925  0.58130885  0.39251340     0.96400
O707        O  0.47022928  0.56819178  0.37530158    -0.72100
O708        O  0.43733376  0.54971338  0.32674121    -0.75600
Al709      Al  0.47219579  0.55635332  0.33386010     1.49000
C710        C  0.42843088  0.56489528  0.32143752     0.91700
O711        O  0.48682253  0.63305286  0.30062700    -0.81900
O712        O  0.53581703  0.62944051  0.29231221    -0.75400
Al713      Al  0.47440128  0.59768234  0.28656089     1.90100
O714        O  0.51047486  0.63780886  0.34371481    -0.74500
O715        O  0.53664334  0.59064994  0.32894825    -0.74300
O716        O  0.51166741  0.59937695  0.37966630    -0.80000
O717        O  0.50228073  0.55481760  0.34614208    -0.78200
O718        O  0.48944036  0.58903686  0.31815270    -1.14300
O719        O  0.47249234  0.54099002  0.29379575    -0.73500
C720        C  0.46168578  0.54372143  0.26888966     0.97200
C721        C  0.49930707  0.64629506  0.32508139     0.93600
Al722      Al  0.52090553  0.61254494  0.33454033     1.55600
O723        O  0.44328023  0.58798429  0.31092100    -0.78200
C724        C  0.52686091  0.56838707  0.34291952     0.97700
C725        C  0.52697748  0.62521184  0.26335019     0.92600
O726        O  0.50307099  0.60883957  0.25826254    -0.83500
O727        O  0.55499496  0.74366871  0.16326955    -0.82900
C728        C  0.56985508  0.73768996  0.03140187     0.96400
O729        O  0.58151857  0.75796541  0.04919032    -0.72100
O730        O  0.55710975  0.77338372  0.08770166    -0.75600
Al731      Al  0.58355920  0.76482583  0.09421991     1.49000
C732        C  0.53495813  0.76550684  0.10003485     0.91700
O733        O  0.50967305  0.69451380  0.10273064    -0.81900
O734        O  0.57623384  0.69671032  0.12613756    -0.75400
Al735      Al  0.53519689  0.72024451  0.13074546     1.90100
O736        O  0.53244088  0.67645918  0.08857378    -0.74500
O737        O  0.60454431  0.72866087  0.07287489    -0.74300
O738        O  0.55934780  0.71424926  0.04273782    -0.80000
O739        O  0.61585078  0.76490890  0.09826953    -0.78200
O740        O  0.56215279  0.73071292  0.10332807    -1.14300
O741        O  0.58807701  0.77674739  0.13786760    -0.73500
C742        C  0.57434764  0.76670665  0.16298657     0.97200
C743        C  0.51055211  0.67460808  0.09371658     0.93600
Al744      Al  0.56770808  0.70623607  0.08460443     1.55600
O745        O  0.52361046  0.74402910  0.11580751    -0.78200
C746        C  0.62174119  0.75228361  0.07885926     0.97700
C747        C  0.56067455  0.68974552  0.15046242     0.92600
O748        O  0.54258516  0.69542761  0.15194802    -0.83500
O749        O  0.76934195  0.55372537  0.09907457    -0.82900
C750        C  0.76476058  0.58512139  0.21960449     0.96400
O751        O  0.78057194  0.58257219  0.20158605    -0.72100
O752        O  0.79319540  0.56030365  0.15577886    -0.75600
Al753      Al  0.78559631  0.58853370  0.15716775     1.49000
C754        C  0.77862931  0.53560000  0.15927245     0.91700
O755        O  0.70662814  0.51881035  0.14736559    -0.81900
O756        O  0.70713468  0.56946368  0.12557298    -0.75400
Al757      Al  0.73975704  0.53978643  0.12692758     1.90100
O758        O  0.70562475  0.54448311  0.18409972    -0.74500
O759        O  0.74808726  0.61473419  0.15255945    -0.74300
O760        O  0.74552930  0.58674604  0.20830693    -0.80000
O761        O  0.78681349  0.62105386  0.16301324    -0.78200
O762        O  0.75113940  0.56897416  0.15002447    -1.14300
O763        O  0.79360695  0.59588790  0.11162844    -0.73500
C764        C  0.78733183  0.57691239  0.09209961     0.97200
C765        C  0.69516392  0.52236478  0.17061274     0.93600
Al766      Al  0.72866388  0.57814787  0.16599381     1.55600
O767        O  0.75409706  0.52472691  0.15564207    -0.78200
C768        C  0.77142992  0.62995318  0.16168648     0.97700
C769        C  0.70841762  0.55878852  0.09920787     0.92600
O770        O  0.72492949  0.55142387  0.09636565    -0.83500
O771        O  0.58796650  0.45675290  0.98652176    -0.82900
C772        C  0.57884946  0.48341934  0.37182353     0.96400
O773        O  0.56517790  0.46482784  0.39143217    -0.72100
O774        O  0.55640882  0.43235951  0.44003233    -0.75600
Al775      Al  0.56258421  0.46773865  0.43606798     1.49000
C776        C  0.57137079  0.42322420  0.43505856     0.91700
O777        O  0.64262647  0.48192634  0.43815995    -0.81900
O778        O  0.64138066  0.53232669  0.45946693    -0.75400
Al779      Al  0.61117868  0.46913925  0.46227490     1.90100
O780        O  0.64118597  0.50812546  0.40196125    -0.74500
O781        O  0.59711491  0.53232517  0.43566326    -0.74300
O782        O  0.59796253  0.50556326  0.38114488    -0.80000
O783        O  0.55910654  0.49758623  0.42851411    -0.78200
O784        O  0.59739274  0.48497646  0.43992938    -1.14300
O785        O  0.55754399  0.46908429  0.48191565    -0.73500
C786        C  0.56485043  0.45692501  0.50099019     0.97200
C787        C  0.65256440  0.49697870  0.41416718     0.93600
Al788      Al  0.61753653  0.51680717  0.42143495     1.55600
O789        O  0.59594609  0.43835886  0.43546605    -0.78200
C790        C  0.57327542  0.52219790  0.42718260     0.97700
C791        C  0.64302051  0.52147378  0.48568839     0.92600
O792        O  0.62737702  0.49724210  0.49095721    -0.83500
C793        C  0.68526271  0.52951105  0.05270623    -0.03000
C794        C  0.69013138  0.55205395  0.07072788     0.06700
C795        C  0.68068073  0.56822263  0.05780037    -0.03100
C796        C  0.66610341  0.56096814  0.02804150    -0.03100
C797        C  0.66412702  0.53977113  0.00944920     0.06800
C798        C  0.67703395  0.52673824  0.02072159    -0.03300
Br799      Br  0.67393149  0.49075895  0.50241830    -0.01800
Br800      Br  0.68612137  0.49972230  0.07178524    -0.01900
Br801      Br  0.64964853  0.58005187  0.01243501    -0.01900
Br802      Br  0.68732227  0.59960320  0.08040001    -0.01900
C803        C  0.52905573  0.53108284  0.36882342    -0.03000
C804        C  0.54254466  0.55806510  0.36013045     0.06700
C805        C  0.56717302  0.57469844  0.37539526    -0.03100
C806        C  0.57783292  0.56383401  0.39780449    -0.03100
C807        C  0.56235479  0.53729848  0.40915481     0.06800
C808        C  0.53647751  0.52229763  0.39642482    -0.03300
Br809      Br  0.50914164  0.49178488  0.41917885    -0.01800
Br810      Br  0.50059467  0.50537464  0.34202794    -0.01900
Br811      Br  0.61313932  0.58622635  0.41354556    -0.01900
Br812      Br  0.58616463  0.61221441  0.36666903    -0.01900
C813        C  0.56129798  0.66852558  0.23691804    -0.03000
C814        C  0.54338291  0.64090664  0.23455962     0.06700
C815        C  0.53742359  0.62953897  0.20300514    -0.03100
C816        C  0.54672877  0.64561080  0.17488580    -0.03100
C817        C  0.56148871  0.67327921  0.17757386     0.06800
C818        C  0.56987622  0.68449556  0.20854748    -0.03300
Br819      Br  0.59178671  0.72226931  0.21184149    -0.01800
Br820      Br  0.57215016  0.68558534  0.27859977    -0.01900
Br821      Br  0.53713098  0.62995365  0.13226505    -0.01900
Br822      Br  0.51508730  0.59200203  0.19718163    -0.01900
C823        C  0.65330489  0.78864191  0.04007763    -0.03000
C824        C  0.64692618  0.76583204  0.05920771     0.06700
C825        C  0.66245800  0.75394336  0.05488228    -0.03100
C826        C  0.68492843  0.76572958  0.03416784    -0.03100
C827        C  0.69121996  0.78868945  0.01548567     0.06800
C828        C  0.67354183  0.79819923  0.01664889    -0.03300
Br829      Br  0.68225759  0.82381449  0.48401110    -0.01800
Br830      Br  0.63577950  0.80858423  0.04520910    -0.01900
Br831      Br  0.70689104  0.75019110  0.03222499    -0.01900
Br832      Br  0.65393633  0.72234925  0.07923832    -0.01900
C833        C  0.77538057  0.68369945  0.21827412    -0.03000
C834        C  0.80266230  0.69745297  0.22508016     0.06700
C835        C  0.81891003  0.69153460  0.20582638    -0.03100
C836        C  0.80840188  0.67363875  0.17983554    -0.03100
C837        C  0.78098591  0.65687019  0.17641881     0.06800
C838        C  0.76442372  0.66278311  0.19520609    -0.03300
Br839      Br  0.72678547  0.64267589  0.19003517    -0.01800
Br840      Br  0.75274745  0.69238678  0.24233076    -0.01900
Br841      Br  0.83218650  0.67210333  0.14875914    -0.01900
Br842      Br  0.85520660  0.70439288  0.21629183    -0.01900
C843        C  0.79837358  0.77096399  0.37256441    -0.03000
C844        C  0.79818723  0.78204970  0.34216011     0.06700
C845        C  0.78835443  0.79932288  0.34024927    -0.03100
C846        C  0.78273452  0.80875902  0.36879164    -0.03100
C847        C  0.78541198  0.79987769  0.40014501     0.06800
C848        C  0.79123315  0.77909379  0.40132865    -0.03300
Br849      Br  0.79210164  0.76309700  0.44203565    -0.01800
Br850      Br  0.81022802  0.74578348  0.37449898    -0.01900
Br851      Br  0.77299101  0.83523809  0.36346498    -0.01900
Br852      Br  0.78508818  0.81200539  0.29802202    -0.01900
C853        C  0.68768526  0.12427300  0.26718916    -0.03000
C854        C  0.66005010  0.11090232  0.26936227     0.06700
C855        C  0.64837345  0.10297819  0.30039675    -0.03100
C856        C  0.66398192  0.11095841  0.32884195    -0.03100
C857        C  0.69140211  0.12792028  0.32661336     0.06800
C858        C  0.70325404  0.13340228  0.29560619    -0.03300
Br859      Br  0.74083405  0.15486863  0.29202018    -0.01800
Br860      Br  0.70414023  0.13191500  0.22507003    -0.01900
Br861      Br  0.64764027  0.10081769  0.37104915    -0.01900
Br862      Br  0.61083543  0.08213246  0.30400359    -0.01900
C863        C  0.51298907  0.71683547  0.31210195    -0.03000
C864        C  0.51685071  0.72584675  0.34429416     0.06700
C865        C  0.51009482  0.70755859  0.36991836    -0.03100
C866        C  0.50189642  0.68090431  0.36338859    -0.03100
C867        C  0.50189545  0.67262614  0.33124106     0.06800
C868        C  0.50607013  0.69048187  0.30536551    -0.03300
Br869      Br  0.50427539  0.68016581  0.26051573    -0.01800
Br870      Br  0.51771631  0.74097108  0.27735024    -0.01900
Br871      Br  0.48921711  0.65555761  0.39843601    -0.01900
Br872      Br  0.51263455  0.71927488  0.41409665    -0.01900
C873        C  0.55782617  0.77229662  0.47061419    -0.03000
C874        C  0.57760678  0.77898023  0.44679774     0.06700
C875        C  0.59515498  0.76930842  0.45044645    -0.03100
C876        C  0.59221428  0.75272518  0.47706875    -0.03100
C877        C  0.56731102  0.74321892  0.99751150     0.06800
C878        C  0.54879985  0.75081134  0.99161940    -0.03300
Br879      Br  0.51799858  0.73681593  0.01872655    -0.01800
Br880      Br  0.53755233  0.78991145  0.47309690    -0.01900
Br881      Br  0.61606777  0.73974003  0.48350238    -0.01900
Br882      Br  0.62391561  0.77935857  0.42070278    -0.01900
C883        C  0.56079968  0.80003400  0.23158365    -0.03000
C884        C  0.58257002  0.80697079  0.25134739     0.06700
C885        C  0.60366684  0.80419770  0.24017646    -0.03100
C886        C  0.60225382  0.79332843  0.20945110    -0.03100
C887        C  0.57864656  0.78267683  0.19193571     0.06800
C888        C  0.55788403  0.78611202  0.20311626    -0.03300
Br889      Br  0.52427968  0.77038883  0.18162323    -0.01800
Br890      Br  0.53370479  0.80732391  0.24494495    -0.01900
Br891      Br  0.63164503  0.79122732  0.19267051    -0.01900
Br892      Br  0.63389521  0.81408643  0.26731597    -0.01900
C893        C  0.54460041  0.00027116  0.09797986    -0.03000
C894        C  0.55763291  0.98570175  0.09375596     0.06700
C895        C  0.58171964  0.99479295  0.11075042    -0.03100
C896        C  0.59092306  0.01576885  0.13363456    -0.03100
C897        C  0.57639059  0.02837026  0.14053562     0.06800
C898        C  0.55334312  0.02065286  0.12161186    -0.03300
Br899      Br  0.53241388  0.03707671  0.12736213    -0.01800
Br900      Br  0.51401265  0.99245490  0.07224578    -0.01900
Br901      Br  0.62319558  0.02635019  0.15682281    -0.01900
Br902      Br  0.60326583  0.97941336  0.10183409    -0.01900
C903        C  0.57315236  0.86915780  0.45929519    -0.03000
C904        C  0.56397893  0.87188411  0.42856686     0.06700
C905        C  0.55241345  0.88789081  0.42626697    -0.03100
C906        C  0.54729882  0.89810814  0.45477557    -0.03100
C907        C  0.55272671  0.89165696  0.48588831     0.06800
C908        C  0.56664437  0.87797803  0.48779408    -0.03300
Br909      Br  0.57666620  0.86807624  0.03080841    -0.01800
Br910      Br  0.59518564  0.85366495  0.46215279    -0.01900
Br911      Br  0.53209193  0.92036441  0.45147043    -0.01900
Br912      Br  0.54175385  0.89424400  0.38450575    -0.01900
C913        C  0.49952873  0.77693144  0.08649981    -0.03000
C914        C  0.52445943  0.78398402  0.09927022     0.06700
C915        C  0.54001616  0.80963217  0.11248360    -0.03100
C916        C  0.53064510  0.82730416  0.11323527    -0.03100
C917        C  0.50883743  0.82254143  0.09428539     0.06800
C918        C  0.49259032  0.79666936  0.08166880    -0.03300
Br919      Br  0.46168000  0.78799616  0.05648720    -0.01800
Br920      Br  0.47517750  0.74068473  0.07524060    -0.01900
Br921      Br  0.54677019  0.85718565  0.14242320    -0.01900
Br922      Br  0.57478962  0.82197667  0.12936857    -0.01900
C923        C  0.84502372  0.88500365  0.21448797    -0.03000
C924        C  0.83550845  0.89333798  0.24042092     0.06700
C925        C  0.83937338  0.88788546  0.27254625    -0.03100
C926        C  0.84921555  0.87090315  0.27863373    -0.03100
C927        C  0.85424604  0.85870171  0.25244553     0.06800
C928        C  0.85373694  0.86700649  0.22045099    -0.03300
Br929      Br  0.86378811  0.85269105  0.18499010    -0.01800
Br930      Br  0.84444288  0.89687133  0.17084551    -0.01900
Br931      Br  0.85338032  0.86260251  0.32282784    -0.01900
Br932      Br  0.82995579  0.90276980  0.30803708    -0.01900
C933        C  0.77028486  0.84959354  0.14857736    -0.03000
C934        C  0.75666439  0.86329881  0.15317103     0.06700
C935        C  0.73808152  0.86058842  0.13021191    -0.03100
C936        C  0.73853072  0.85082749  0.09937520    -0.03100
C937        C  0.75745061  0.84343830  0.09186238     0.06800
C938        C  0.77130811  0.84017710  0.11754008    -0.03300
Br939      Br  0.79189502  0.82369801  0.11045088    -0.01800
Br940      Br  0.78358873  0.84025943  0.18579125    -0.01900
Br941      Br  0.71296020  0.84780987  0.06819311    -0.01900
Br942      Br  0.71160849  0.86916633  0.14173673    -0.01900
C943        C  0.77969000  0.92251297  0.36507418    -0.03000
C944        C  0.76624254  0.90383700  0.34058896     0.06700
C945        C  0.74673037  0.87756865  0.34938980    -0.03100
C946        C  0.74361873  0.86948539  0.38206406    -0.03100
C947        C  0.76022182  0.88732103  0.40546332     0.06800
C948        C  0.77563387  0.91428730  0.39759473    -0.03300
Br949      Br  0.78926588  0.93968979  0.43198573    -0.01800
Br950      Br  0.80502608  0.95871158  0.35435685    -0.01900
Br951      Br  0.71753311  0.83391821  0.39498474    -0.01900
Br952      Br  0.72412407  0.85211900  0.31759505    -0.01900
C953        C  0.65038537  0.87962930  0.28278928    -0.03000
C954        C  0.65054287  0.87295795  0.31619218     0.06700
C955        C  0.67488022  0.88089214  0.33062241    -0.03100
C956        C  0.69803091  0.89633623  0.31273454    -0.03100
C957        C  0.69747066  0.89675921  0.27832176     0.06800
C958        C  0.67319967  0.88857261  0.26341927    -0.03300
Br959      Br  0.67140984  0.89005955  0.21680199    -0.01800
Br960      Br  0.62089974  0.87969318  0.26321785    -0.01900
Br961      Br  0.72576959  0.92506380  0.33594067    -0.01900
Br962      Br  0.67692865  0.87253964  0.37546067    -0.01900
C963        C  0.80904860  0.13389234  0.48843680    -0.03000
C964        C  0.79574180  0.10602673  0.49285112     0.06700
C965        C  0.77138473  0.09072282  0.47635428    -0.03100
C966        C  0.76141552  0.10284413  0.45518963    -0.03100
C967        C  0.77603269  0.13036220  0.44853592     0.06800
C968        C  0.80024656  0.14561364  0.46519801    -0.03300
Br969      Br  0.82262666  0.18299313  0.45678660    -0.01800
Br970      Br  0.83940197  0.15716526  0.51438742    -0.01900
Br971      Br  0.72802412  0.08117186  0.43385607    -0.01900
Br972      Br  0.75307181  0.05787296  0.99147356    -0.01900
C973        C  0.77110073  0.97149136  0.12433974    -0.03000
C974        C  0.77931029  0.98223617  0.15594045     0.06700
C975        C  0.79209631  0.01016146  0.15912021    -0.03100
C976        C  0.79866000  0.02659855  0.13112844    -0.03100
C977        C  0.79346724  0.01563558  0.09968204     0.06800
C978        C  0.77821810  0.98803148  0.09657679    -0.03300
Br979      Br  0.76980657  0.97285659  0.05366942    -0.01800
Br980      Br  0.75166272  0.93386157  0.11804613    -0.01900
Br981      Br  0.81622225  0.06456330  0.13531526    -0.01900
Br982      Br  0.80418906  0.02661009  0.20090037    -0.01900
C983        C  0.84489048  0.95834631  0.47500319    -0.03000
C984        C  0.83260790  0.93992805  0.50051133     0.06700
C985        C  0.82903465  0.94660228  0.03329855    -0.03100
C986        C  0.83764145  0.97352631  0.03852045    -0.03100
C987        C  0.84780028  0.99377597  0.50920980     0.06800
C988        C  0.85086161  0.98480648  0.47876318    -0.03300
Br989      Br  0.86171654  0.00816867  0.44182403    -0.01800
Br990      Br  0.85218393  0.94704433  0.43444369    -0.01900
Br991      Br  0.83748174  0.98539565  0.08195346    -0.01900
Br992      Br  0.81613250  0.92166121  0.06898557    -0.01900
C993        C  0.13849714  0.68580392  0.49523869    -0.03000
C994        C  0.12596797  0.65796464  0.49344945     0.06700
C995        C  0.11621417  0.64599495  0.46288740    -0.03100
C996        C  0.12328667  0.66148693  0.43406145    -0.03100
C997        C  0.13970298  0.68933996  0.43555899     0.06800
C998        C  0.14480999  0.70128625  0.46655413    -0.03300
Br999      Br  0.16071583  0.73921481  0.46967058    -0.01800
Br1000     Br  0.15324963  0.70321864  0.03817229    -0.01900
Br1001     Br  0.11131414  0.64397935  0.39297288    -0.01900
Br1002     Br  0.09287930  0.60812262  0.46073575    -0.01900
C1003       C  0.98953851  0.85353252  0.25474154    -0.03000
C1004       C  0.00009630  0.83835244  0.26787552     0.06700
C1005       C  0.98312447  0.81521201  0.28585255    -0.03100
C1006       C  0.95589024  0.80390560  0.28315560    -0.03100
C1007       C  0.94518197  0.81836904  0.26899987     0.06800
C1008       C  0.96220865  0.84391430  0.25650789    -0.03300
Br1009     Br  0.94784031  0.86463578  0.23926361    -0.01800
Br1010     Br  0.01203105  0.88763596  0.23479093    -0.01900
Br1011     Br  0.93381725  0.76772037  0.29779459    -0.01900
Br1012     Br  0.99599264  0.79848157  0.31535786    -0.01900
C1013       C  0.11649414  0.77528584  0.26201204    -0.03000
C1014       C  0.10731805  0.79059588  0.27669192     0.06700
C1015       C  0.10687843  0.79055504  0.31126082    -0.03100
C1016       C  0.12241748  0.78298940  0.32963855    -0.03100
C1017       C  0.13352470  0.76945024  0.31473869     0.06800
C1018       C  0.12716093  0.76275219  0.28129252    -0.03300
Br1019     Br  0.12970202  0.73458591  0.26163331    -0.01800
Br1020     Br  0.11244094  0.76996408  0.21576485    -0.01900
Br1021     Br  0.12637941  0.78893728  0.37575858    -0.01900
Br1022     Br  0.07934116  0.79196049  0.33397678    -0.01900
C1023       C  0.86279881  0.83501381  0.96783936    -0.03000
C1024       C  0.85088810  0.83932013  0.99528922     0.06700
C1025       C  0.86874343  0.84274963  0.52883975    -0.03100
C1026       C  0.88764651  0.83488180  0.53272339    -0.03100
C1027       C  0.89058276  0.82604857  0.00337769     0.06800
C1028       C  0.88168236  0.82729939  0.97215148    -0.03300
Br1029     Br  0.89460628  0.81709309  0.93535720    -0.01800
Br1030     Br  0.85377565  0.83922969  0.92391728    -0.01900
Br1031     Br  0.90527718  0.83981654  0.57378423    -0.01900
Br1032     Br  0.86110320  0.85917140  0.56417345    -0.01900
C1033       C  0.00646872  0.78022658  0.10528130    -0.03000
C1034       C  0.98527980  0.78541899  0.10432809     0.06700
C1035       C  0.98024318  0.79519664  0.13359211    -0.03100
C1036       C  0.99306659  0.79583247  0.16261765    -0.03100
C1037       C  0.01606241  0.79454384  0.16233845     0.06800
C1038       C  0.02282288  0.78676416  0.13335440    -0.03300
Br1039     Br  0.05499327  0.78589963  0.13241046    -0.01800
Br1040     Br  0.01499250  0.76608880  0.06831709    -0.01900
Br1041     Br  0.98010933  0.80050434  0.20316428    -0.01900
Br1042     Br  0.96085171  0.81385206  0.13522416    -0.01900
C1043       C  0.85583546  0.76557431  0.10647548    -0.03000
C1044       C  0.87532472  0.75875864  0.10209435     0.06700
C1045       C  0.88804336  0.75583264  0.12888813    -0.03100
C1046       C  0.88484733  0.76403239  0.15938603    -0.03100
C1047       C  0.86479054  0.77035789  0.16488988     0.06800
C1048       C  0.84971985  0.77031560  0.13800269    -0.03300
Br1049     Br  0.82093328  0.77662871  0.14342804    -0.01800
Br1050     Br  0.83769364  0.76814815  0.06891316    -0.01900
Br1051     Br  0.91091292  0.76938254  0.19156912    -0.01900
Br1052     Br  0.91119220  0.74180730  0.12291578    -0.01900
C1053       C  0.88025536  0.73706641  0.37492728    -0.03000
C1054       C  0.89075259  0.76251181  0.36117076     0.06700
C1055       C  0.91492007  0.78355560  0.37315930    -0.03100
C1056       C  0.92707072  0.77953192  0.40011510    -0.03100
C1057       C  0.91495838  0.75499830  0.41594104     0.06800
C1058       C  0.89239698  0.73342020  0.40230802    -0.03300
Br1059     Br  0.87708218  0.69924664  0.42271850    -0.01800
Br1060     Br  0.84789276  0.70777764  0.35863934    -0.01900
Br1061     Br  0.95898129  0.80836815  0.41808627    -0.01900
Br1062     Br  0.93184032  0.81846161  0.35395838    -0.01900
C1063       C  0.71413874  0.49268568  0.40242120    -0.03000
C1064       C  0.73332351  0.51974716  0.39975617     0.06700
C1065       C  0.72506244  0.53851263  0.39572993    -0.03100
C1066       C  0.69835021  0.53070855  0.39745029    -0.03100
C1067       C  0.67927795  0.50389150  0.40310655     0.06800
C1068       C  0.68718984  0.48478172  0.40362987    -0.03300
Br1069     Br  0.66092730  0.44765385  0.40441568    -0.01800
Br1070     Br  0.72467420  0.46658050  0.40645759    -0.01900
Br1071     Br  0.68887132  0.55784396  0.39361755    -0.01900
Br1072     Br  0.74986935  0.57546755  0.38704005    -0.01900
C1073       C  0.80103778  0.60226548  0.29844851    -0.03000
C1074       C  0.78851869  0.57715002  0.31306969     0.06700
C1075       C  0.76499520  0.55638759  0.29952071    -0.03100
C1076       C  0.75491581  0.56050811  0.27074530    -0.03100
C1077       C  0.76887182  0.58481034  0.25452262     0.06800
C1078       C  0.79148001  0.60585881  0.26877330    -0.03300
Br1079     Br  0.81078732  0.63875261  0.24603950    -0.01800
Br1080     Br  0.83293459  0.63065631  0.31689614    -0.01900
Br1081     Br  0.72398152  0.53158211  0.25104080    -0.01900
Br1082     Br  0.74707962  0.52126795  0.31790295    -0.01900
C1083       C  0.79037673  0.55963720  0.00736878    -0.03000
C1084       C  0.81661253  0.56604696  0.00328345     0.06700
C1085       C  0.83460593  0.57876344  0.02882968    -0.03100
C1086       C  0.82582639  0.58402373  0.05831986    -0.03100
C1087       C  0.80014040  0.57989205  0.06048621     0.06800
C1088       C  0.78335177  0.56953431  0.03365704    -0.03300
Br1089     Br  0.75127532  0.57042544  0.03161642    -0.01800
Br1090     Br  0.76444461  0.51402573  0.48101333    -0.01900
Br1091     Br  0.84846514  0.59619003  0.09566132    -0.01900
Br1092     Br  0.87096979  0.58940233  0.02317288    -0.01900
C1093       C  0.85803214  0.64277312  0.46937472    -0.03000
C1094       C  0.87427947  0.63713504  0.44945601     0.06700
C1095       C  0.90177199  0.65216865  0.45454161    -0.03100
C1096       C  0.91279608  0.67399595  0.47623215    -0.03100
C1097       C  0.89632084  0.67997690  0.49498188     0.06800
C1098       C  0.86903467  0.66240997  0.49351110    -0.03300
Br1099     Br  0.84652993  0.66532217  0.52530843    -0.01800
Br1100     Br  0.82063262  0.62607724  0.46344950    -0.01900
Br1101     Br  0.95484349  0.70771600  0.96765548    -0.01900
Br1102     Br  0.92460188  0.64416749  0.42983050    -0.01900
C1103       C  0.01219369  0.56497061  0.16126099    -0.03000
C1104       C  0.98748750  0.55344460  0.14621292     0.06700
C1105       C  0.98725402  0.55639665  0.11182396    -0.03100
C1106       C  0.00991204  0.56311208  0.09302514    -0.03100
C1107       C  0.03463314  0.57438339  0.10800678     0.06800
C1108       C  0.03540154  0.57828309  0.14224660    -0.03300
Br1109     Br  0.06641711  0.60503881  0.16341075    -0.01800
Br1110     Br  0.01428279  0.56502643  0.20796639    -0.01900
Br1111     Br  0.00705720  0.55760010  0.04680753    -0.01900
Br1112     Br  0.95842266  0.55645394  0.09017355    -0.01900
C1113       C  0.90682935  0.54175822  0.29698084    -0.03000
C1114       C  0.90090739  0.54773751  0.26591638     0.06700
C1115       C  0.88905308  0.56335715  0.26394184    -0.03100
C1116       C  0.87852060  0.56825330  0.29211710    -0.03100
C1117       C  0.88163130  0.55941785  0.32294946     0.06800
C1118       C  0.89759590  0.54794048  0.32540236    -0.03300
Br1119     Br  0.90455811  0.53829768  0.36754129    -0.01800
Br1120     Br  0.92717905  0.52456817  0.30039702    -0.01900
Br1121     Br  0.85798876  0.58518388  0.28796530    -0.01900
Br1122     Br  0.88523022  0.57590728  0.22207051    -0.01900
C1123       C  0.79711086  0.50827107  0.13938118    -0.03000
C1124       C  0.79123458  0.51985456  0.16553382     0.06700
C1125       C  0.80123279  0.52004460  0.19657178    -0.03100
C1126       C  0.81835189  0.51020192  0.20103856    -0.03100
C1127       C  0.82680545  0.50168863  0.17408846     0.06800
C1128       C  0.81489299  0.49916611  0.14374635    -0.03300
Br1129     Br  0.82282610  0.48294145  0.10855116    -0.01800
Br1130     Br  0.78251256  0.50672967  0.09700996    -0.01900
Br1131     Br  0.82980591  0.50819844  0.24417915    -0.01900
Br1132     Br  0.79270467  0.53527166  0.23252461    -0.01900
C1133       C  0.17339768  0.52215181  0.05729372    -0.03000
C1134       C  0.17756069  0.51731416  0.08962652     0.06700
C1135       C  0.17785975  0.53400454  0.11443641    -0.03100
C1136       C  0.17198244  0.55402195  0.10709105    -0.03100
C1137       C  0.16502192  0.55687205  0.07527079     0.06800
C1138       C  0.16732069  0.54195981  0.05018456    -0.03300
Br1139     Br  0.16188717  0.54852750  0.00597855    -0.01800
Br1140     Br  0.17502168  0.50095839  0.02278311    -0.01900
Br1141     Br  0.17266396  0.57705373  0.14057885    -0.01900
Br1142     Br  0.18360330  0.52781913  0.15891950    -0.01900
C1143       C  0.14065683  0.61471276  0.31977471    -0.03000
C1144       C  0.15648805  0.60384547  0.32890753     0.06700
C1145       C  0.18280393  0.62129889  0.33828845    -0.03100
C1146       C  0.19205158  0.64871508  0.34203254    -0.03100
C1147       C  0.17541787  0.65902074  0.33517710     0.06800
C1148       C  0.15014435  0.64191604  0.32222293    -0.03300
Br1149     Br  0.12714820  0.65462089  0.30760939    -0.01800
Br1150     Br  0.10581768  0.59311869  0.30148288    -0.01900
Br1151     Br  0.22811112  0.67246184  0.35424348    -0.01900
Br1152     Br  0.20633208  0.60806185  0.34585482    -0.01900
C1153       C  0.12453446  0.58810101  0.19145261    -0.03000
C1154       C  0.10296623  0.57369556  0.17101897     0.06700
C1155       C  0.08041428  0.55057046  0.18252625    -0.03100
C1156       C  0.07991512  0.54152284  0.21429899    -0.03100
C1157       C  0.10302913  0.55366532  0.23288389     0.06800
C1158       C  0.12513589  0.57750531  0.22173987    -0.03300
Br1159     Br  0.15695930  0.59585983  0.24689069    -0.01800
Br1160     Br  0.15415838  0.62130201  0.17691934    -0.01900
Br1161     Br  0.04815740  0.51180943  0.23145068    -0.01900
Br1162     Br  0.05061128  0.53035774  0.15456320    -0.01900
C1163       C  0.08876924  0.50736189  0.44913309    -0.03000
C1164       C  0.10919297  0.51943136  0.42618209     0.06700
C1165       C  0.12925465  0.54555360  0.43060434    -0.03100
C1166       C  0.12727667  0.56088433  0.45494533    -0.03100
C1167       C  0.10781430  0.54877181  0.47962954     0.06800
C1168       C  0.08873163  0.52153989  0.47678209    -0.03300
Br1169     Br  0.06275556  0.50321583  0.51011085    -0.01800
Br1170     Br  0.06097206  0.47149582  0.44219474    -0.01900
Br1171     Br  0.14292491  0.59573813  0.94534956    -0.01900
Br1172     Br  0.15898193  0.56065974  0.40158362    -0.01900
C1173       C  0.11818593  0.43847388  0.24441085    -0.03000
C1174       C  0.10878175  0.45634554  0.24297274     0.06700
C1175       C  0.10404657  0.46379108  0.21215050    -0.03100
C1176       C  0.11121051  0.45594742  0.18344564    -0.03100
C1177       C  0.12377858  0.44101144  0.18512625     0.06800
C1178       C  0.12589054  0.43105050  0.21560911    -0.03300
Br1179     Br  0.14114403  0.40877160  0.21788936    -0.01800
Br1180     Br  0.12327859  0.42659715  0.28608328    -0.01900
Br1181     Br  0.10614617  0.46774051  0.14166812    -0.01900
Br1182     Br  0.08958850  0.48655684  0.20920368    -0.01900
C1183       C  0.14758150  0.35074497  0.05001770    -0.03000
C1184       C  0.13073085  0.35622856  0.06872551     0.06700
C1185       C  0.10344501  0.34103887  0.06241968    -0.03100
C1186       C  0.09321133  0.32016900  0.03926765    -0.03100
C1187       C  0.11039019  0.31559073  0.01964838     0.06800
C1188       C  0.13772487  0.33274440  0.02392126    -0.03300
Br1189     Br  0.16256953  0.33219134  0.99370798    -0.01800
Br1190     Br  0.18426895  0.36565618  0.06031260    -0.01900
Br1191     Br  0.06334056  0.31024039  0.52891439    -0.01900
Br1192     Br  0.07981456  0.34764181  0.08757259    -0.01900
C1193       C  0.97920308  0.17018593  0.02687582    -0.03000
C1194       C  0.99694222  0.16173711  0.01772663     0.06700
C1195       C  0.98717968  0.13424755  0.01432403    -0.03100
C1196       C  0.95985311  0.11587516  0.01656829    -0.03100
C1197       C  0.94205630  0.12486806  0.02166221     0.06800
C1198       C  0.95206902  0.15210344  0.02757271    -0.03300
Br1199     Br  0.92908726  0.16585366  0.03644184    -0.01800
Br1200     Br  0.99079927  0.20676431  0.03757469    -0.01900
Br1201     Br  0.94667558  0.07858943  0.01088128    -0.01900
Br1202     Br  0.01130920  0.12152477  0.00879136    -0.01900
C1203       C  0.86016355  0.05270744  0.27754918    -0.03000
C1204       C  0.88561626  0.06411064  0.26404094     0.06700
C1205       C  0.89300674  0.04750828  0.24846180    -0.03100
C1206       C  0.87425647  0.02038886  0.24340986    -0.03100
C1207       C  0.84825341  0.00935075  0.25539245     0.06800
C1208       C  0.84217655  0.02547731  0.27486554    -0.03300
Br1209     Br  0.80932051  0.01161607  0.29852864    -0.01800
Br1210     Br  0.84884769  0.07418074  0.29963186    -0.01900
Br1211     Br  0.88485614  0.99819491  0.22172247    -0.01900
Br1212     Br  0.92847893  0.06203778  0.23319831    -0.01900
C1213       C  0.85136642  0.10544440  0.40148649    -0.03000
C1214       C  0.86051908  0.09265484  0.42219896     0.06700
C1215       C  0.88277296  0.09140894  0.41367397    -0.03100
C1216       C  0.89527804  0.10167138  0.38388736    -0.03100
C1217       C  0.88746969  0.11633086  0.36369927     0.06800
C1218       C  0.86516118  0.11795248  0.37275489    -0.03300
Br1219     Br  0.85383716  0.13824303  0.34743430    -0.01800
Br1220     Br  0.81994833  0.10588781  0.41282129    -0.01900
Br1221     Br  0.92193385  0.09341543  0.37138314    -0.01900
Br1222     Br  0.89796247  0.07817488  0.44467620    -0.01900
C1223       C  0.91289098  0.16430936  0.14768661    -0.03000
C1224       C  0.92519935  0.15404112  0.16712391     0.06700
C1225       C  0.92615150  0.13187956  0.15705899    -0.03100
C1226       C  0.91177112  0.11773439  0.12983391    -0.03100
C1227       C  0.89565970  0.12555804  0.11286405     0.06800
C1228       C  0.89753218  0.14988047  0.12095620    -0.03300
Br1229     Br  0.87815595  0.16300423  0.09731815    -0.01800
Br1230     Br  0.91856096  0.19880556  0.15732542    -0.01900
Br1231     Br  0.91578293  0.08841522  0.11667678    -0.01900
Br1232     Br  0.94652068  0.12051874  0.18198984    -0.01900
C1233       C  0.99616224  0.21404489  0.40926147    -0.03000
C1234       C  0.02386844  0.22786228  0.40710876     0.06700
C1235       C  0.03556134  0.23533258  0.37605661    -0.03100
C1236       C  0.02007838  0.22578691  0.34765861    -0.03100
C1237       C  0.99246895  0.21019829  0.34982889     0.06800
C1238       C  0.98057432  0.20543789  0.38077038    -0.03300
Br1239     Br  0.94283382  0.18510941  0.38422791    -0.01800
Br1240     Br  0.97945585  0.20459149  0.45120056    -0.01900
Br1241     Br  0.03690630  0.23138993  0.30596892    -0.01900
Br1242     Br  0.07306931  0.25843478  0.37268001    -0.01900
C1243       C  0.82700238  0.44644945  0.44489275    -0.03000
C1244       C  0.84181892  0.44215543  0.42148530     0.06700
C1245       C  0.84333944  0.45155341  0.38961804    -0.03100
C1246       C  0.83479148  0.46943558  0.38281797    -0.03100
C1247       C  0.82436654  0.47752633  0.40790679     0.06800
C1248       C  0.81826248  0.46431387  0.43800315    -0.03300
Br1249     Br  0.79924021  0.47190886  0.46990390    -0.01800
Br1250     Br  0.82064813  0.42978545  0.48697614    -0.01900
Br1251     Br  0.83860445  0.48374223  0.33959741    -0.01900
Br1252     Br  0.85753305  0.44027182  0.35549759    -0.01900
C1253       C  0.93848924  0.47780747  0.04284524    -0.03000
C1254       C  0.91989361  0.47524548  0.02012346     0.06700
C1255       C  0.90546387  0.48795222  0.02532929    -0.03100
C1256       C  0.90399541  0.49661304  0.05659500    -0.03100
C1257       C  0.91819763  0.49344150  0.08220081     0.06800
C1258       C  0.93793928  0.48697045  0.07395176    -0.03300
Br1259     Br  0.96547976  0.49094723  0.10333396    -0.01800
Br1260     Br  0.96501163  0.46937164  0.03061861    -0.01900
Br1261     Br  0.88338920  0.51332911  0.06285993    -0.01900
Br1262     Br  0.88365250  0.49205789  0.49090093    -0.01900
C1263       C  0.93769986  0.45159861  0.32236133    -0.03000
C1264       C  0.91526228  0.42821332  0.33325478     0.06700
C1265       C  0.89306979  0.41559717  0.31350110    -0.03100
C1266       C  0.89181026  0.42838822  0.28525030    -0.03100
C1267       C  0.91408207  0.45287434  0.27515965     0.06800
C1268       C  0.93758227  0.46327925  0.29269428    -0.03300
Br1269     Br  0.96874480  0.49542037  0.27867884    -0.01800
Br1270     Br  0.96757069  0.47019059  0.34972527    -0.01900
Br1271     Br  0.85850536  0.41227119  0.26273340    -0.01900
Br1272     Br  0.86329881  0.38232592  0.32772857    -0.01900
C1273       C  0.83946091  0.31184765  0.40405217    -0.03000
C1274       C  0.83228281  0.32898508  0.41887841     0.06700
C1275       C  0.80569347  0.31887060  0.42774186    -0.03100
C1276       C  0.78710557  0.29166084  0.42376396    -0.03100
C1277       C  0.79558727  0.27404317  0.41445305     0.06800
C1278       C  0.82205807  0.28449837  0.40472729    -0.03300
Br1279     Br  0.83557828  0.26204093  0.39135437    -0.01800
Br1280     Br  0.87290439  0.32467187  0.38210886    -0.01900
Br1281     Br  0.75037032  0.27883534  0.43126322    -0.01900
Br1282     Br  0.79424357  0.34240171  0.44333358    -0.01900
C1283       C  0.98891911  0.42643508  0.38871331    -0.03000
C1284       C  0.98474272  0.44313845  0.40976342     0.06700
C1285       C  0.00333496  0.47045228  0.40939172    -0.03100
C1286       C  0.02335847  0.48142426  0.38563915    -0.03100
C1287       C  0.02764592  0.46486785  0.36445933     0.06800
C1288       C  0.01063755  0.43722735  0.36706759    -0.03300
Br1289     Br  0.01596780  0.41417713  0.33877495    -0.01800
Br1290     Br  0.96443133  0.38884362  0.38725711    -0.01900
Br1291     Br  0.04291292  0.51942236  0.38196678    -0.01900
Br1292     Br  0.00051876  0.49331171  0.44087256    -0.01900
C1293       C  0.73020451  0.21828394  0.20038980    -0.03000
C1294       C  0.73906573  0.22746273  0.16864258     0.06700
C1295       C  0.72075285  0.21908235  0.14298431    -0.03100
C1296       C  0.69418100  0.19999223  0.14862044    -0.03100
C1297       C  0.68594018  0.18892059  0.17976807     0.06800
C1298       C  0.70363735  0.19926800  0.20600775    -0.03300
Br1299     Br  0.69184530  0.18651965  0.24948813    -0.01800
Br1300     Br  0.75494559  0.23005256  0.23575836    -0.01900
Br1301     Br  0.66921358  0.18803518  0.11351863    -0.01900
Br1302     Br  0.73255890  0.23150172  0.09945777    -0.01900
C1303       C  0.86779240  0.20064603  0.19225854    -0.03000
C1304       C  0.87955492  0.22841847  0.18813631     0.06700
C1305       C  0.90229372  0.24476250  0.20705127    -0.03100
C1306       C  0.91280056  0.23343641  0.22872392    -0.03100
C1307       C  0.89919088  0.20584003  0.23533741     0.06800
C1308       C  0.87576177  0.18975599  0.21756182    -0.03300
Br1309     Br  0.85356922  0.15246770  0.22669528    -0.01800
Br1310     Br  0.84147323  0.17673918  0.16179727    -0.01900
Br1311     Br  0.94598072  0.25622544  0.24988634    -0.01900
Br1312     Br  0.91925394  0.28284002  0.20498642    -0.01900
C1313       C  0.90453344  0.36586473  0.05137154    -0.03000
C1314       C  0.89628858  0.35568436  0.01978502     0.06700
C1315       C  0.88335898  0.32783859  0.01583450    -0.03100
C1316       C  0.87641310  0.31085574  0.04324001    -0.03100
C1317       C  0.88080011  0.32118592  0.07501632     0.06800
C1318       C  0.89608513  0.34890755  0.07881222    -0.03300
Br1319     Br  0.90323882  0.36428206  0.12140717    -0.01800
Br1320     Br  0.92786030  0.40324184  0.05718032    -0.01900
Br1321     Br  0.86042040  0.27309076  0.03746372    -0.01900
Br1322     Br  0.87052780  0.31295877  0.47613049    -0.01900
C1323       C  0.77667898  0.22468101  0.04199160    -0.03000
C1324       C  0.78544383  0.21250475  0.06499494     0.06700
C1325       C  0.77838185  0.18572188  0.06029708    -0.03100
C1326       C  0.76297916  0.17180232  0.03318948    -0.03100
C1327       C  0.75373391  0.18401565  0.01174529     0.06800
C1328       C  0.75907133  0.20965842  0.01763989    -0.03300
Br1329     Br  0.74412815  0.22505158  0.98941104    -0.01800
Br1330     Br  0.79073907  0.26264933  0.03951507    -0.01900
Br1331     Br  0.74358048  0.13719193  0.52756634    -0.01900
Br1332     Br  0.79061452  0.16805426  0.08895829    -0.01900
C1333       C  0.81009242  0.21021507  0.30269004    -0.03000
C1334       C  0.80055149  0.22394019  0.32029655     0.06700
C1335       C  0.80452633  0.24849058  0.30840585    -0.03100
C1336       C  0.81721775  0.25855620  0.27858172    -0.03100
C1337       C  0.82262903  0.24254214  0.25879109     0.06800
C1338       C  0.81879985  0.21820946  0.27080773    -0.03300
Br1339     Br  0.82136630  0.19370947  0.24262781    -0.01800
Br1340     Br  0.80919095  0.17937966  0.32104496    -0.01900
Br1341     Br  0.82388791  0.29259504  0.26287060    -0.01900
Br1342     Br  0.79101777  0.26778604  0.33101253    -0.01900
C1343       C  0.83154111  0.35922118  0.16744559    -0.03000
C1344       C  0.84745513  0.34892015  0.17862358     0.06700
C1345       C  0.87202175  0.36649469  0.19305184    -0.03100
C1346       C  0.88151768  0.39388075  0.19324833    -0.03100
C1347       C  0.86611653  0.40432084  0.18076802     0.06800
C1348       C  0.84082559  0.38669718  0.16863025    -0.03300
Br1349     Br  0.81945140  0.40025583  0.15136565    -0.01800
Br1350     Br  0.79644206  0.33599241  0.15110511    -0.01900
Br1351     Br  0.91620677  0.41655065  0.21129216    -0.01900
Br1352     Br  0.89424905  0.35421624  0.21177218    -0.01900
C1353       C  0.12929103  0.17870794  0.02507072    -0.03000
C1354       C  0.11857365  0.18193696  0.50390507     0.06700
C1355       C  0.11945126  0.16421599  0.48166823    -0.03100
C1356       C  0.13807913  0.15593041  0.48568203    -0.03100
C1357       C  0.15623446  0.16562717  0.51164662     0.06800
C1358       C  0.14934279  0.17285566  0.03123685    -0.03300
Br1359     Br  0.15767566  0.16879823  0.07542794    -0.01800
Br1360     Br  0.11157462  0.18414932  0.06068177    -0.01900
Br1361     Br  0.13877548  0.13183744  0.45518374    -0.01900
Br1362     Br  0.09653307  0.15296459  0.44441436    -0.01900
C1363       C  0.03381916  0.19070168  0.22628121    -0.03000
C1364       C  0.01654281  0.16666395  0.24216333     0.06700
C1365       C  0.02583000  0.14912039  0.24940909    -0.03100
C1366       C  0.05297157  0.15780206  0.24600552    -0.03100
C1367       C  0.07098366  0.18444491  0.23765639     0.06800
C1368       C  0.06092833  0.20055217  0.22670364    -0.03300
Br1369     Br  0.08351349  0.23638398  0.21144904    -0.01800
Br1370     Br  0.02036554  0.20917369  0.20075312    -0.01900
Br1371     Br  0.06533121  0.13340706  0.25322082    -0.01900
Br1372     Br  0.00178264  0.11304810  0.26221332    -0.01900
C1373       C  0.13697094  0.26328454  0.12986685    -0.03000
C1374       C  0.12507373  0.23880753  0.14602213     0.06700
C1375       C  0.10122153  0.21740675  0.13406527    -0.03100
C1376       C  0.08972308  0.22069721  0.10598944    -0.03100
C1377       C  0.10384876  0.24375877  0.08738679     0.06800
C1378       C  0.12763216  0.26492433  0.09920385    -0.03300
Br1379     Br  0.14925803  0.29478677  0.07212053    -0.01800
Br1380     Br  0.16676306  0.29403156  0.14849934    -0.01900
Br1381     Br  0.05592959  0.19263624  0.09122381    -0.01900
Br1382     Br  0.08437908  0.18296781  0.15448146    -0.01900
C1383       C  0.15552586  0.25379863  0.38988826    -0.03000
C1384       C  0.12821841  0.23625218  0.39452369     0.06700
C1385       C  0.11444098  0.21539424  0.37181426    -0.03100
C1386       C  0.12799526  0.21127663  0.34687429    -0.03100
C1387       C  0.15429399  0.22993580  0.34078786     0.06800
C1388       C  0.16821005  0.25101342  0.36244392    -0.03300
Br1389     Br  0.20472575  0.27590591  0.35413399    -0.01800
Br1390     Br  0.17605689  0.28165495  0.42036842    -0.01900
Br1391     Br  0.11034409  0.18060042  0.31921658    -0.01900
Br1392     Br  0.07646573  0.19364381  0.37126626    -0.01900
C1393       C  0.21684388  0.23527181  0.13047110    -0.03000
C1394       C  0.21929111  0.22614497  0.16131886     0.06700
C1395       C  0.23253896  0.21195349  0.16387119    -0.03100
C1396       C  0.23940030  0.20332463  0.13565743    -0.03100
C1397       C  0.23594638  0.21124494  0.10441409     0.06800
C1398       C  0.22579497  0.22850708  0.10220749    -0.03300
Br1399     Br  0.22057140  0.23980652  0.06023021    -0.01800
Br1400     Br  0.19921508  0.25525111  0.12700947    -0.01900
Br1401     Br  0.24946643  0.17717164  0.14020077    -0.01900
Br1402     Br  0.23903147  0.20220635  0.20624879    -0.01900
C1403       C  0.20970969  0.48725603  0.37256771    -0.03000
C1404       C  0.21522610  0.47515049  0.34654776     0.06700
C1405       C  0.20384239  0.47368966  0.31598330    -0.03100
C1406       C  0.18962914  0.48662871  0.31063007    -0.03100
C1407       C  0.18205604  0.49636589  0.33706632     0.06800
C1408       C  0.19177828  0.49623559  0.36822597    -0.03300
Br1409     Br  0.17931701  0.50688420  0.40505237    -0.01800
Br1410     Br  0.22458022  0.48931859  0.41496434    -0.01900
Br1411     Br  0.18110406  0.49135414  0.26684683    -0.01900
Br1412     Br  0.20475763  0.45169794  0.28227554    -0.01900
C1413       C  0.19706451  0.31646768  0.29703983    -0.03000
C1414       C  0.21290327  0.30933318  0.27873651     0.06700
C1415       C  0.23998126  0.32169996  0.28651191    -0.03100
C1416       C  0.25113722  0.34168714  0.31046097    -0.03100
C1417       C  0.23550893  0.34977416  0.32739068     0.06800
C1418       C  0.20799330  0.33524178  0.32231229    -0.03300
Br1419     Br  0.18432816  0.33965306  0.35045650    -0.01800
Br1420     Br  0.16027220  0.30193259  0.28760447    -0.01900
Br1421     Br  0.28770136  0.35648927  0.32184763    -0.01900
Br1422     Br  0.26239857  0.31213069  0.26335409    -0.01900
C1423       C  0.19436566  0.41714849  0.45687067    -0.03000
C1424       C  0.22204553  0.42923010  0.45353569     0.06700
C1425       C  0.23833986  0.44675355  0.47810822    -0.03100
C1426       C  0.22752357  0.45451861  0.50271850    -0.03100
C1427       C  0.18983359  0.43739617  0.00634563     0.06800
C1428       C  0.17818515  0.41584979  0.98511567    -0.03300
Br1429     Br  0.14150798  0.39005711  0.99067477    -0.01800
Br1430     Br  0.17077379  0.39347405  0.42430890    -0.01900
Br1431     Br  0.25028125  0.48283527  0.53136478    -0.01900
Br1432     Br  0.27569464  0.45953821  0.48010205    -0.01900
C1433       C  0.25298166  0.45118700  0.24293349    -0.03000
C1434       C  0.24714978  0.42648450  0.25536678     0.06700
C1435       C  0.22976479  0.40332107  0.23832341    -0.03100
C1436       C  0.21569276  0.40439047  0.21134761    -0.03100
C1437       C  0.22027492  0.42906862  0.20001123     0.06800
C1438       C  0.24044990  0.45257851  0.21465127    -0.03300
Br1439     Br  0.25212558  0.48728772  0.19670942    -0.01800
Br1440     Br  0.27485116  0.48303850  0.26736083    -0.01900
Br1441     Br  0.18922482  0.37191287  0.19144552    -0.01900
Br1442     Br  0.22591881  0.37021076  0.25127111    -0.01900
C1443       C  0.36188960  0.53050197  0.36048423    -0.03000
C1444       C  0.34716555  0.51412626  0.33426055     0.06700
C1445       C  0.35814503  0.52008191  0.30286714    -0.03100
C1446       C  0.38382582  0.54140546  0.29809341    -0.03100
C1447       C  0.39994030  0.55395077  0.32501134     0.06800
C1448       C  0.38866853  0.54952414  0.35608664    -0.03300
Br1449     Br  0.41033405  0.56891427  0.39252858    -0.01800
Br1450     Br  0.34648861  0.52552143  0.40305651    -0.01900
Br1451     Br  0.39757938  0.55282548  0.25486986    -0.01900
Br1452     Br  0.33925460  0.49784044  0.26680546    -0.01900
C1453       C  0.45588091  0.61132883  0.05746298    -0.03000
C1454       C  0.44590597  0.59515050  0.08538171     0.06700
C1455       C  0.45445900  0.60634463  0.11623831    -0.03100
C1456       C  0.47404566  0.63320791  0.11910798    -0.03100
C1457       C  0.48617641  0.64855564  0.09096127     0.06800
C1458       C  0.47651736  0.63772286  0.06019546    -0.03300
Br1459     Br  0.49257497  0.65869876  0.02176471    -0.01800
Br1460     Br  0.44225109  0.59706917  0.01520347    -0.01900
Br1461     Br  0.48517561  0.64804842  0.16175457    -0.01900
Br1462     Br  0.44057045  0.58412996  0.15434781    -0.01900
C1463       C  0.33462094  0.44226838  0.48866003    -0.03000
C1464       C  0.36078758  0.46408306  0.48633358     0.06700
C1465       C  0.37088945  0.47364627  0.45452516    -0.03100
C1466       C  0.35476657  0.46345223  0.42686841    -0.03100
C1467       C  0.32800363  0.44476125  0.43006866     0.06800
C1468       C  0.31839864  0.43285877  0.46060792    -0.03300
Br1469     Br  0.28282582  0.40359464  0.46346288    -0.01800
Br1470     Br  0.30284396  0.43588744  0.03921544    -0.01900
Br1471     Br  0.36906904  0.47557595  0.38388516    -0.01900
Br1472     Br  0.40632360  0.50205164  0.44712429    -0.01900
C1473       C  0.48990524  0.58174362  0.48460316    -0.03000
C1474       C  0.47497103  0.55439884  0.49077501     0.06700
C1475       C  0.47237834  0.53661850  0.46684649    -0.03100
C1476       C  0.47755837  0.54530633  0.43456107    -0.03100
C1477       C  0.48904032  0.57277400  0.42689985     0.06800
C1478       C  0.49785414  0.59105421  0.45265039    -0.03300
Br1479     Br  0.51965343  0.62839796  0.44469521    -0.01800
Br1480     Br  0.50278196  0.57270300  0.01638121    -0.01900
Br1481     Br  0.46663609  0.51818734  0.40237470    -0.01900
Br1482     Br  0.46039584  0.50017860  0.47869973    -0.01900
C1483       C  0.41446954  0.50160518  0.20653988    -0.03000
C1484       C  0.43225605  0.50637531  0.18100839     0.06700
C1485       C  0.45868477  0.51435830  0.18863391    -0.03100
C1486       C  0.46827877  0.52316310  0.22009389    -0.03100
C1487       C  0.45137355  0.52346925  0.24350680     0.06800
C1488       C  0.42420991  0.50901043  0.23821375    -0.03300
Br1489     Br  0.40125813  0.49670328  0.27524630    -0.01800
Br1490     Br  0.37755290  0.48732075  0.19850361    -0.01900
Br1491     Br  0.50375395  0.53353215  0.23220305    -0.01900
Br1492     Br  0.48151512  0.51260840  0.15666149    -0.01900
C1493       C  0.27842865  0.45729456  0.11800026    -0.03000
C1494       C  0.27086612  0.47626210  0.11062757     0.06700
C1495       C  0.29070062  0.50269304  0.10473191    -0.03100
C1496       C  0.31742697  0.50954508  0.10378024    -0.03100
C1497       C  0.32459256  0.49001761  0.10860897     0.06800
C1498       C  0.30496563  0.46418917  0.11753000    -0.03300
Br1499     Br  0.31356220  0.43698895  0.12725751    -0.01800
Br1500     Br  0.25299394  0.42102723  0.12867361    -0.01900
Br1501     Br  0.34435959  0.54601271  0.09695981    -0.01900
Br1502     Br  0.28128254  0.52915355  0.09565517    -0.01900
C1503       C  0.62230319  0.48921783  0.18767644    -0.03000
C1504       C  0.61399824  0.46210405  0.18308039     0.06700
C1505       C  0.63310357  0.45460184  0.17955022    -0.03100
C1506       C  0.65998525  0.47419148  0.17709579    -0.03100
C1507       C  0.66804804  0.50138608  0.17959985     0.06800
C1508       C  0.64903069  0.50857601  0.18660669    -0.03300
Br1509     Br  0.65844623  0.54504967  0.19386990    -0.01800
Br1510     Br  0.59757070  0.50069895  0.19799876    -0.01900
Br1511     Br  0.68573190  0.46348431  0.17132517    -0.01900
Br1512     Br  0.62262552  0.41764327  0.17760351    -0.01900
C1513       C  0.42611049  0.42718646  0.12209241    -0.03000
C1514       C  0.43961842  0.44857463  0.09984221     0.06700
C1515       C  0.46656852  0.45825337  0.09481343    -0.03100
C1516       C  0.48087537  0.45115800  0.11594791    -0.03100
C1517       C  0.46785979  0.43096686  0.13977135     0.06800
C1518       C  0.44012671  0.41800756  0.14111873    -0.03300
Br1519     Br  0.42146162  0.38836669  0.17034494    -0.01800
Br1520     Br  0.38851438  0.41002100  0.12697864    -0.01900
Br1521     Br  0.51846081  0.47034051  0.11127931    -0.01900
Br1522     Br  0.48360280  0.48020081  0.05712272    -0.01900
C1523       C  0.54680933  0.47047780  0.32613558    -0.03000
C1524       C  0.57245541  0.47871166  0.33731791     0.06700
C1525       C  0.59098527  0.47881926  0.31605025    -0.03100
C1526       C  0.58294053  0.46821428  0.28500321    -0.03100
C1527       C  0.55779820  0.46177622  0.27322725     0.06800
C1528       C  0.54090343  0.46563228  0.29307881    -0.03300
Br1529     Br  0.50895485  0.46208270  0.27562154    -0.01800
Br1530     Br  0.51811955  0.45912923  0.35587816    -0.01900
Br1531     Br  0.60557942  0.45953247  0.26149572    -0.01900
Br1532     Br  0.62578714  0.48854800  0.33115613    -0.01900
C1533       C  0.56047823  0.42590551  0.07672821    -0.03000
C1534       C  0.53332223  0.41343330  0.08160446     0.06700
C1535       C  0.51735918  0.41586899  0.05812345    -0.03100
C1536       C  0.52874307  0.43158923  0.03016724    -0.03100
C1537       C  0.55644419  0.44621162  0.02677592     0.06800
C1538       C  0.57220887  0.44373756  0.05099916    -0.03300
Br1539     Br  0.61005359  0.46624635  0.05140763    -0.01800
Br1540     Br  0.58167375  0.41914488  0.10657260    -0.01900
Br1541     Br  0.50604751  0.43250038  0.99710261    -0.01900
Br1542     Br  0.47995923  0.39804547  0.06521483    -0.01900
C1543       C  0.45936440  0.34245494  0.32171750    -0.03000
C1544       C  0.44932211  0.31501746  0.31965123     0.06700
C1545       C  0.44540256  0.30345688  0.28859845    -0.03100
C1546       C  0.45397180  0.31951041  0.26031958    -0.03100
C1547       C  0.46758380  0.34734113  0.26292697     0.06800
C1548       C  0.46926514  0.35859692  0.29369701    -0.03300
Br1549     Br  0.48705689  0.39631886  0.29796484    -0.01800
Br1550     Br  0.46131712  0.35803066  0.36347195    -0.01900
Br1551     Br  0.44949988  0.30352059  0.21823237    -0.01900
Br1552     Br  0.42935492  0.26562318  0.28494511    -0.01900
C1553       C  0.52554053  0.35131268  0.45109588    -0.03000
C1554       C  0.52184775  0.34112368  0.41954410     0.06700
C1555       C  0.53925912  0.35670239  0.39450432    -0.03100
C1556       C  0.55753867  0.38367838  0.39999740    -0.03100
C1557       C  0.55922006  0.39445766  0.43089675     0.06800
C1558       C  0.54476904  0.37769333  0.45689969    -0.03300
Br1559     Br  0.55119592  0.39072717  0.50059856    -0.01800
Br1560     Br  0.50373797  0.32944357  0.48628317    -0.01900
Br1561     Br  0.57877502  0.40635907  0.36496251    -0.01900
Br1562     Br  0.53711920  0.34166449  0.35237696    -0.01900
C1563       C  0.34877708  0.24099814  0.44596409    -0.03000
C1564       C  0.35979670  0.22578715  0.43480775     0.06700
C1565       C  0.34732288  0.19887699  0.44507255    -0.03100
C1566       C  0.32554220  0.18805989  0.46677700    -0.03100
C1567       C  0.31504144  0.20358815  0.47894126     0.06800
C1568       C  0.32718166  0.23029804  0.46803461    -0.03300
Br1569     Br  0.31483431  0.25309910  0.48367665    -0.01800
Br1570     Br  0.36199676  0.27644282  0.42929267    -0.01900
Br1571     Br  0.30999956  0.15447825  0.96739474    -0.01900
Br1572     Br  0.35941892  0.17562448  0.42989268    -0.01900
C1573       C  0.50678299  0.28195866  0.20279687    -0.03000
C1574       C  0.50781589  0.27209914  0.17204310     0.06700
C1575       C  0.52049902  0.29007660  0.14622267    -0.03100
C1576       C  0.52770685  0.31688686  0.14974603    -0.03100
C1577       C  0.52427439  0.32601601  0.17979409     0.06800
C1578       C  0.51614163  0.30903995  0.20695589    -0.03300
Br1579     Br  0.51606671  0.32238163  0.24962368    -0.01800
Br1580     Br  0.48995009  0.25818129  0.23867953    -0.01900
Br1581     Br  0.54006224  0.34064209  0.11301417    -0.01900
Br1582     Br  0.52480183  0.27742098  0.10493037    -0.01900
C1583       C  0.41451124  0.21222332  0.05514938    -0.03000
C1584       C  0.43299461  0.22900854  0.07768732     0.06700
C1585       C  0.44783808  0.25634685  0.07105960    -0.03100
C1586       C  0.44829301  0.26608994  0.03945732    -0.03100
C1587       C  0.43379167  0.24816472  0.01439504     0.06800
C1588       C  0.41457749  0.22158689  0.02367272    -0.03300
Br1589     Br  0.49014453  0.26149857  0.48508774    -0.01800
Br1590     Br  0.38939896  0.17617035  0.06782560    -0.01900
Br1591     Br  0.46779227  0.30373202  0.03177261    -0.01900
Br1592     Br  0.46545028  0.28029210  0.10622278    -0.01900
C1593       C  0.46355704  0.19639787  0.27798771    -0.03000
C1594       C  0.43964015  0.17891802  0.26346514     0.06700
C1595       C  0.41626384  0.16990909  0.28096347    -0.03100
C1596       C  0.41590722  0.18375173  0.30845895    -0.03100
C1597       C  0.43968860  0.20484963  0.32010517     0.06800
C1598       C  0.46378652  0.20928116  0.30660736    -0.03300
Br1599     Br  0.49737349  0.23243450  0.32615792    -0.01800
Br1600     Br  0.49560291  0.20232211  0.25763275    -0.01900
Br1601     Br  0.38288749  0.17538589  0.32785696    -0.01900
Br1602     Br  0.38592010  0.13736846  0.26898078    -0.01900
C1603       C  0.53804734  0.17923762  0.17288267    -0.03000
C1604       C  0.51094541  0.16054266  0.17742226     0.06700
C1605       C  0.50389733  0.13522568  0.19012414    -0.03100
C1606       C  0.52284383  0.12748603  0.19285326    -0.03100
C1607       C  0.54966202  0.14540574  0.18531642     0.06800
C1608       C  0.55728233  0.17179554  0.17723303    -0.03300
Br1609     Br  0.59393838  0.19791692  0.17172943    -0.01800
Br1610     Br  0.54944488  0.21584148  0.16339542    -0.01900
Br1611     Br  0.51126687  0.09204483  0.20891181    -0.01900
Br1612     Br  0.46854583  0.11039393  0.20521179    -0.01900
C1613       C  0.64487050  0.16794662  0.39032389    -0.03000
C1614       C  0.66213851  0.17503154  0.41700378     0.06700
C1615       C  0.65302732  0.17519869  0.44843784    -0.03100
C1616       C  0.62636415  0.16673814  0.45349010    -0.03100
C1617       C  0.60868444  0.15752117  0.42717137     0.06800
C1618       C  0.61806784  0.15880529  0.39549515    -0.03300
Br1619     Br  0.59371302  0.14563897  0.35966707    -0.01800
Br1620     Br  0.65735445  0.16871682  0.34691320    -0.01900
Br1621     Br  0.61371273  0.16572697  0.49686815    -0.01900
Br1622     Br  0.67670258  0.18506863  0.48480924    -0.01900
C1623       C  0.56415899  0.11791502  0.05991877    -0.03000
C1624       C  0.55914999  0.09826731  0.03642525     0.06700
C1625       C  0.57220375  0.08365009  0.03926874    -0.03100
C1626       C  0.59028380  0.08927596  0.06476854    -0.03100
C1627       C  0.59576679  0.10965465  0.08681976     0.06800
C1628       C  0.58406470  0.12504296  0.08273468    -0.03300
Br1629     Br  0.59426292  0.15493131  0.11069467    -0.01800
Br1630     Br  0.54289065  0.13437480  0.06320780    -0.01900
Br1631     Br  0.60770398  0.06921316  0.07022668    -0.01900
Br1632     Br  0.57037092  0.06147550  0.50380095    -0.01900
C1633       C  0.53046923  0.06609685  0.32764328    -0.03000
C1634       C  0.52492716  0.08575231  0.33792486     0.06700
C1635       C  0.52991433  0.10674101  0.31715689    -0.03100
C1636       C  0.54422484  0.11039074  0.28865355    -0.03100
C1637       C  0.54954429  0.09053416  0.27807907     0.06800
C1638       C  0.54054822  0.06732778  0.29646447    -0.03300
Br1639     Br  0.54415996  0.03843467  0.28040065    -0.01800
Br1640     Br  0.52773953  0.03939667  0.35714603    -0.01900
Br1641     Br  0.55838202  0.14406921  0.26684121    -0.01900
Br1642     Br  0.52016755  0.13235523  0.32982477    -0.01900
C1643       C  0.45723402  0.11235401  0.07534481    -0.03000
C1644       C  0.44841100  0.13064580  0.07060413     0.06700
C1645       C  0.44506971  0.13668478  0.03819323    -0.03100
C1646       C  0.45180429  0.12604921  0.01161671    -0.03100
C1647       C  0.46414196  0.11110450  0.01664474     0.06800
C1648       C  0.46514382  0.10285841  0.04857860    -0.03300
Br1649     Br  0.47709721  0.07801832  0.05519882    -0.01800
Br1650     Br  0.46164289  0.10234433  0.11841391    -0.01900
Br1651     Br  0.50435786  0.17486314  0.49477718    -0.01900
Br1652     Br  0.43286483  0.16095571  0.02947879    -0.01900
C1653       C  0.47186907  0.16121949  0.41045318    -0.03000
C1654       C  0.49872530  0.16905484  0.40854444     0.06700
C1655       C  0.51765511  0.19636382  0.40741572    -0.03100
C1656       C  0.50992549  0.21557028  0.40957449    -0.03100
C1657       C  0.48312323  0.20769738  0.41353567     0.06800
C1658       C  0.46420755  0.18019619  0.41433640    -0.03300
Br1659     Br  0.42717496  0.16704380  0.42121568    -0.01800
Br1660     Br  0.44476728  0.12418688  0.40901660    -0.01900
Br1661     Br  0.53646485  0.25265931  0.40939054    -0.01900
Br1662     Br  0.55428452  0.20743109  0.40195423    -0.01900
C1663       C  0.23146413  0.72185789  0.07965290    -0.03000
C1664       C  0.22307367  0.73850206  0.09276612     0.06700
C1665       C  0.19786514  0.72695897  0.10718211    -0.03100
C1666       C  0.18123269  0.69932953  0.10809383    -0.03100
C1667       C  0.18828284  0.68271587  0.09135971     0.06800
C1668       C  0.21395987  0.69418764  0.07812256    -0.03300
Br1669     Br  0.22590201  0.67212918  0.05900649    -0.01800
Br1670     Br  0.26659772  0.73711630  0.06251011    -0.01900
Br1671     Br  0.14837821  0.68549563  0.13168099    -0.01900
Br1672     Br  0.18522364  0.74858291  0.12622832    -0.01900
C1673       C  0.21298977  0.79936606  0.20847994    -0.03000
C1674       C  0.22522162  0.78780454  0.19154471     0.06700
C1675       C  0.22155688  0.76297869  0.20164381    -0.03100
C1676       C  0.20679534  0.75056479  0.22957492    -0.03100
C1677       C  0.19785293  0.76402649  0.24884462     0.06800
C1678       C  0.20041820  0.78816512  0.23792940    -0.03300
Br1679     Br  0.18932771  0.80767534  0.26462938    -0.01800
Br1680     Br  0.21514149  0.83164152  0.19301051    -0.01900
Br1681     Br  0.20213680  0.71700595  0.24401528    -0.01900
Br1682     Br  0.23747399  0.74605920  0.17856381    -0.01900
C1683       C  0.26389129  0.81071565  0.44596711    -0.03000
C1684       C  0.23837306  0.80524473  0.43678238     0.06700
C1685       C  0.22718493  0.81783145  0.45385502    -0.03100
C1686       C  0.24012350  0.83313413  0.48127484    -0.03100
C1687       C  0.26280597  0.83397615  0.49408096     0.06800
C1688       C  0.27565307  0.82418940  0.47502072    -0.03300
Br1689     Br  0.30863400  0.82796795  0.48904551    -0.01800
Br1690     Br  0.28389058  0.80128971  0.41836176    -0.01900
Br1691     Br  0.21288159  0.83719705  0.01346635    -0.01900
Br1692     Br  0.19327082  0.81282594  0.44192679    -0.01900
C1693       C  0.37423667  0.86378668  0.05771812    -0.03000
C1694       C  0.35726384  0.84070663  0.07579537     0.06700
C1695       C  0.36773595  0.82557074  0.08923727    -0.03100
C1696       C  0.39500279  0.83471972  0.08675415    -0.03100
C1697       C  0.41211778  0.85945102  0.07219423     0.06800
C1698       C  0.40137505  0.87375785  0.05759014    -0.03300
Br1699     Br  0.42334035  0.90773538  0.03727832    -0.01800
Br1700     Br  0.36094790  0.88235609  0.03190638    -0.01900
Br1701     Br  0.40923276  0.81434910  0.10544169    -0.01900
Br1702     Br  0.34558812  0.79275394  0.11194117    -0.01900
C1703       C  0.50581809  0.85296093  0.30508602    -0.03000
C1704       C  0.49812783  0.82907560  0.32220730     0.06700
C1705       C  0.47158513  0.81344402  0.33231075    -0.03100
C1706       C  0.45398001  0.82295146  0.32823139    -0.03100
C1707       C  0.46337677  0.84893135  0.31677452     0.06800
C1708       C  0.48933254  0.86366778  0.30477825    -0.03300
Br1709     Br  0.50344995  0.89921970  0.28810358    -0.01800
Br1710     Br  0.53860015  0.87189595  0.28112208    -0.01900
Br1711     Br  0.41737935  0.80071392  0.33906727    -0.01900
Br1712     Br  0.45877262  0.77852020  0.35029395    -0.01900
C1713       C  0.47165497  0.98147831  0.38178750    -0.03000
C1714       C  0.45054506  0.97581460  0.36041342     0.06700
C1715       C  0.43818603  0.99097644  0.36362831    -0.03100
C1716       C  0.44685709  0.01157106  0.38698999    -0.03100
C1717       C  0.46788123  0.01712266  0.40866839     0.06800
C1718       C  0.47935699  0.00090264  0.40636288    -0.03300
Br1719     Br  0.50670159  0.00541876  0.43647675    -0.01800
Br1720     Br  0.49111245  0.96328916  0.37807947    -0.01900
Br1721     Br  0.42994632  0.03239444  0.38746022    -0.01900
Br1722     Br  0.41024822  0.98456366  0.33392127    -0.01900
C1723       C  0.47842638  0.88374168  0.18072224    -0.03000
C1724       C  0.49563120  0.90859950  0.16702608     0.06700
C1725       C  0.50062887  0.93169228  0.18366676    -0.03100
C1726       C  0.48681818  0.93012308  0.21221256    -0.03100
C1727       C  0.46825429  0.90521696  0.22484728     0.06800
C1728       C  0.46523117  0.88199782  0.20979723    -0.03300
Br1729     Br  0.44396914  0.84727046  0.22884746    -0.01800
Br1730     Br  0.47133731  0.85182288  0.15839324    -0.01900
Br1731     Br  0.49239454  0.96212993  0.23266022    -0.01900
Br1732     Br  0.52697237  0.96560025  0.16787175    -0.01900
C1733       C  0.43507324  0.91596077  0.43997267    -0.03000
C1734       C  0.42631305  0.89385345  0.41981367     0.06700
C1735       C  0.43373449  0.87519451  0.42648762    -0.03100
C1736       C  0.45225122  0.87980243  0.45071453    -0.03100
C1737       C  0.46150930  0.90221013  0.47158362     0.06800
C1738       C  0.45312920  0.92067520  0.46521070    -0.03300
Br1739     Br  0.46772530  0.95383687  0.48798547    -0.01800
Br1740     Br  0.42169873  0.93948188  0.43252484    -0.01900
Br1741     Br  0.46611725  0.85396826  0.94837120    -0.01900
Br1742     Br  0.41917897  0.84375482  0.40034141    -0.01900
C1743       C  0.33627867  0.88793874  0.23914840    -0.03000
C1744       C  0.36354989  0.89776674  0.23787957     0.06700
C1745       C  0.37579981  0.90257768  0.20727429    -0.03100
C1746       C  0.36065559  0.89349345  0.17866640    -0.03100
C1747       C  0.33304808  0.88123131  0.18003801     0.06800
C1748       C  0.32103584  0.87934276  0.21038253    -0.03300
Br1749     Br  0.28341429  0.86168416  0.21321793    -0.01800
Br1750     Br  0.31955931  0.88337151  0.28079716    -0.01900
Br1751     Br  0.37755802  0.89437315  0.13835217    -0.01900
Br1752     Br  0.41356286  0.92075059  0.20499266    -0.01900
C1753       C  0.31385656  0.81176454  0.29898292    -0.03000
C1754       C  0.33235781  0.81603654  0.32319236     0.06700
C1755       C  0.32506139  0.79705728  0.34816813    -0.03100
C1756       C  0.29825108  0.77777732  0.35264250    -0.03100
C1757       C  0.27902988  0.77909147  0.33356014     0.06800
C1758       C  0.28714800  0.79403647  0.30467769    -0.03300
Br1759     Br  0.26221320  0.78846084  0.27143075    -0.01800
Br1760     Br  0.32525268  0.82707403  0.25651811    -0.01900
Br1761     Br  0.28813169  0.74957927  0.38379410    -0.01900
Br1762     Br  0.35159410  0.79708291  0.37520138    -0.01900
C1763       C  0.05749198  0.84452319  0.49539880    -0.03000
C1764       C  0.06706022  0.87186714  0.50032368     0.06700
C1765       C  0.05384001  0.88794660  0.99894878    -0.03100
C1766       C  0.02643213  0.86979372  0.00081587    -0.03100
C1767       C  0.01229381  0.83432188  0.50334173     0.06800
C1768       C  0.03039398  0.82648489  0.49385704    -0.03300
Br1769     Br  0.01919827  0.79144788  0.47701910    -0.01800
Br1770     Br  0.08090901  0.83080554  0.48856820    -0.01900
Br1771     Br  0.00246105  0.88295290  0.00421714    -0.01900
Br1772     Br  0.06662597  0.92544874  0.00083905    -0.01900
C1773       C  0.20199404  0.88217077  0.05423017    -0.03000
C1774       C  0.21641521  0.90394225  0.03277654     0.06700
C1775       C  0.24410333  0.91799644  0.03548530    -0.03100
C1776       C  0.25708747  0.90894101  0.05651174    -0.03100
C1777       C  0.24249718  0.88594800  0.07630500     0.06800
C1778       C  0.21487962  0.87455092  0.07711939    -0.03300
Br1779     Br  0.19388934  0.84884689  0.11019567    -0.01800
Br1780     Br  0.16424138  0.86120308  0.05282312    -0.01900
Br1781     Br  0.29501624  0.92958662  0.05906460    -0.01900
Br1782     Br  0.25889880  0.94242603  0.50279621    -0.01900
C1783       C  0.09318013  0.86397673  0.39171867    -0.03000
C1784       C  0.11754487  0.86799924  0.40302449     0.06700
C1785       C  0.13357092  0.86325291  0.38253079    -0.03100
C1786       C  0.12734615  0.85874298  0.34941861    -0.03100
C1787       C  0.10377954  0.85663373  0.33776297     0.06800
C1788       C  0.08633338  0.85836943  0.35912150    -0.03300
Br1789     Br  0.05482162  0.85688351  0.34301223    -0.01800
Br1790     Br  0.06951326  0.86776609  0.41999647    -0.01900
Br1791     Br  0.15208109  0.85734305  0.32018364    -0.01900
Br1792     Br  0.16491075  0.86507471  0.39956657    -0.01900
C1793       C  0.12669650  0.90893684  0.09544681    -0.03000
C1794       C  0.15405129  0.92212961  0.09210970     0.06700
C1795       C  0.16888884  0.91713083  0.11496250    -0.03100
C1796       C  0.15624796  0.89914622  0.14096417    -0.03100
C1797       C  0.12846834  0.88425271  0.14231388     0.06800
C1798       C  0.11399607  0.88805060  0.11756056    -0.03300
Br1799     Br  0.07664146  0.86395769  0.11254232    -0.01800
Br1800     Br  0.10657820  0.91897941  0.06825748    -0.01900
Br1801     Br  0.17708849  0.89515961  0.17409726    -0.01900
Br1802     Br  0.20645894  0.93495891  0.11013608    -0.01900
C1803       C  0.15691748  0.02225491  0.01701358    -0.03000
C1804       C  0.16670065  0.01425536  0.99119493     0.06700
C1805       C  0.17493756  0.02535509  0.46765114    -0.03100
C1806       C  0.18783931  0.05251547  0.47363078    -0.03100
C1807       C  0.18626799  0.06872272  0.00127767     0.06800
C1808       C  0.16591748  0.04946608  0.02152209    -0.03300
Br1809     Br  0.15188419  0.05946935  0.05746217    -0.01800
Br1810     Br  0.13133553  0.99578570  0.04582891    -0.01900
Br1811     Br  0.21460985  0.07559948  0.44339352    -0.01900
Br1812     Br  0.17516670  0.01291427  0.42457818    -0.01900
C1813       C  0.20108761  0.14276100  0.28631897    -0.03000
C1814       C  0.19268313  0.12015058  0.26714511     0.06700
C1815       C  0.17199130  0.11271675  0.24496172    -0.03100
C1816       C  0.16145145  0.12941499  0.24001062    -0.03100
C1817       C  0.16993285  0.15199250  0.25980833     0.06800
C1818       C  0.18764729  0.15657624  0.28527499    -0.03300
Br1819     Br  0.19433751  0.18240812  0.31851804    -0.01800
Br1820     Br  0.23366828  0.15822109  0.30967044    -0.01900
Br1821     Br  0.13749922  0.12239496  0.20458647    -0.01900
Br1822     Br  0.16031422  0.08125675  0.21940019    -0.01900
C1823       C  0.33336071  0.13600330  0.23780607    -0.03000
C1824       C  0.31974709  0.10812314  0.24138857     0.06700
C1825       C  0.32788819  0.09380283  0.22144356    -0.03100
C1826       C  0.34747559  0.10663557  0.19708151    -0.03100
C1827       C  0.36086658  0.13453350  0.19311374     0.06800
C1828       C  0.35221308  0.14876999  0.21276835    -0.03300
Br1829     Br  0.36461353  0.18607743  0.20558322    -0.01800
Br1830     Br  0.32865590  0.15789169  0.26897974    -0.01900
Br1831     Br  0.35429395  0.08507274  0.16800889    -0.01900
Br1832     Br  0.31459189  0.05661305  0.22978365    -0.01900
C1833       C  0.25667844  0.16028143  0.39772277    -0.03000
C1834       C  0.23341716  0.14977660  0.41587583     0.06700
C1835       C  0.21159889  0.12580787  0.40644675    -0.03100
C1836       C  0.21350235  0.11139483  0.38054533    -0.03100
C1837       C  0.23825861  0.11996600  0.36534362     0.06800
C1838       C  0.25983678  0.14486600  0.37408932    -0.03300
Br1839     Br  0.29426397  0.15751251  0.35583423    -0.01800
Br1840     Br  0.28422830  0.19583749  0.40627626    -0.01900
Br1841     Br  0.18144404  0.07979769  0.36792096    -0.01900
Br1842     Br  0.18012165  0.11082688  0.43242171    -0.01900
C1843       C  0.26976153  0.12250455  0.15998401    -0.03000
C1844       C  0.25259612  0.09510196  0.16812488     0.06700
C1845       C  0.23873211  0.07770293  0.14235078    -0.03100
C1846       C  0.23609874  0.08803266  0.11246865    -0.03100
C1847       C  0.24984251  0.11551863  0.10699243     0.06800
C1848       C  0.26956288  0.13186346  0.12857369    -0.03300
Br1849     Br  0.29721442  0.16627880  0.11382058    -0.01800
Br1850     Br  0.29387982  0.14876469  0.19000459    -0.01900
Br1851     Br  0.21600833  0.06470817  0.07773639    -0.01900
Br1852     Br  0.22657682  0.04051064  0.14561027    -0.01900
C1853       C  0.20956033  0.98153675  0.34342767    -0.03000
C1854       C  0.22784532  0.00883845  0.34497478     0.06700
C1855       C  0.23862831  0.02000299  0.37547779    -0.03100
C1856       C  0.22942626  0.00458613  0.40434197    -0.03100
C1857       C  0.20889873  0.97785930  0.40302958     0.06800
C1858       C  0.20008137  0.96624178  0.37213857    -0.03300
Br1859     Br  0.17389433  0.92947065  0.36887350    -0.01800
Br1860     Br  0.19558931  0.96567304  0.30179532    -0.01900
Br1861     Br  0.24270815  0.02106604  0.44581942    -0.01900
Br1862     Br  0.26423830  0.05723467  0.37769769    -0.01900
C1863       C  0.15163256  0.98289174  0.21997205    -0.03000
C1864       C  0.15746347  0.99274523  0.25173000     0.06700
C1865       C  0.14337568  0.97588590  0.27799773    -0.03100
C1866       C  0.12691864  0.94853392  0.27279638    -0.03100
C1867       C  0.12311848  0.93837934  0.24115278     0.06800
C1868       C  0.13442595  0.95577880  0.21460839    -0.03300
Br1869     Br  0.12737260  0.94238328  0.17097181    -0.01800
Br1870     Br  0.16693399  0.00682740  0.18398431    -0.01900
Br1871     Br  0.11176132  0.92463715  0.30917315    -0.01900
Br1872     Br  0.14739781  0.98968683  0.32131670    -0.01900
O1873       O  0.22307494  0.08231669  0.83965353    -0.82900
C1874       C  0.24026823  0.08535159  0.70540133     0.96400
O1875       O  0.25238165  0.10355235  0.72569091    -0.72100
O1876       O  0.22386868  0.11424482  0.76341559    -0.75600
Al1877     Al  0.25150915  0.10744078  0.77077467     1.49000
C1878       C  0.20158116  0.10506173  0.77606130     0.91700
O1879       O  0.17808190  0.03551901  0.77583076    -0.81900
O1880       O  0.24488585  0.03793232  0.79588045    -0.75400
Al1881     Al  0.20354884  0.06025568  0.80519496     1.90100
O1882       O  0.20175737  0.01991700  0.75686211    -0.74500
O1883       O  0.27329492  0.07322078  0.74625593    -0.74300
O1884       O  0.22864911  0.06115464  0.71459981    -0.80000
O1885       O  0.28444242  0.10793510  0.77543326    -0.78200
O1886       O  0.23057356  0.07277340  0.77750668    -1.14300
O1887       O  0.25307921  0.11776969  0.81469843    -0.73500
C1888       C  0.23951001  0.10661344  0.83963520     0.97200
C1889       C  0.17961298  0.01704412  0.76288953     0.93600
Al1890     Al  0.23661365  0.05001207  0.75566587     1.55600
O1891       O  0.19159639  0.08406130  0.79272718    -0.78200
C1892       C  0.29064520  0.09610371  0.75474524     0.97700
C1893       C  0.22991664  0.03019502  0.82083859     0.92600
O1894       O  0.21129733  0.03493516  0.82361428    -0.83500
O1895       O  0.13914657  0.91516391  0.92760336    -0.82900
C1896       C  0.16174579  0.92480581  0.55766199     0.96400
O1897       O  0.15388116  0.90347201  0.54236009    -0.72100
O1898       O  0.11147196  0.88516619  0.50888995    -0.75600
Al1899     Al  0.14562800  0.89312029  0.49864207     1.49000
C1900       C  0.10069550  0.89703339  0.99243889     0.91700
O1901       O  0.14449064  0.96774669  0.98306765    -0.81900
O1902       O  0.20948306  0.96648298  0.96161784    -0.75400
Al1903     Al  0.14420993  0.94064831  0.95767135     1.90100
O1904       O  0.18089565  0.98082161  0.49405380    -0.74500
O1905       O  0.20325427  0.93219446  0.51344919    -0.74300
O1906       O  0.17321555  0.94732891  0.54362761    -0.80000
O1907       O  0.18386196  0.90041791  0.99376353    -0.78200
O1908       O  0.16201235  0.93239446  0.98592917    -1.14300
O1909       O  0.14208810  0.88441991  0.95464036    -0.73500
C1910       C  0.13621109  0.89249546  0.92934275     0.97200
C1911       C  0.16007371  0.98147815  0.49116285     0.93600
Al1912     Al  0.18751169  0.95255295  0.50054005     1.55600
O1913       O  0.10984355  0.91766465  0.97517195    -0.78200
C1914       C  0.19752133  0.90860933  0.50963524     0.97700
C1915       C  0.20004240  0.97062683  0.93567566     0.92600
O1916       O  0.17593722  0.96418516  0.93402018    -0.83500
O1917       O  0.42815167  0.88990665  0.74972292    -0.82900
C1918       C  0.42234170  0.89796324  0.88368153     0.96400
O1919       O  0.44241253  0.91143520  0.86617076    -0.72100
O1920       O  0.45568138  0.88661111  0.82662943    -0.75600
Al1921     Al  0.44928066  0.91460735  0.82112507     1.49000
C1922       C  0.44795633  0.86530489  0.81186258     0.91700
O1923       O  0.37931948  0.84179304  0.80984737    -0.81900
O1924       O  0.38206592  0.91015185  0.79169366    -0.75400
Al1925     Al  0.40464127  0.86855499  0.78209677     1.90100
O1926       O  0.36165681  0.86434715  0.82647014    -0.74500
O1927       O  0.41380481  0.93506689  0.84543879    -0.74300
O1928       O  0.39909257  0.88801024  0.87254819    -0.80000
O1929       O  0.45015962  0.94805019  0.81942495    -0.78200
O1930       O  0.41541064  0.89427178  0.81135709    -1.14300
O1931       O  0.46215813  0.91947558  0.77702552    -0.73500
C1932       C  0.45221698  0.90668383  0.75110764     0.97200
C1933       C  0.35996225  0.84249500  0.82092339     0.93600
Al1934     Al  0.39131694  0.89909246  0.83191982     1.55600
O1935       O  0.42776942  0.85585955  0.79427623    -0.78200
C1936       C  0.43710533  0.95287792  0.83976307     0.97700
C1937       C  0.37540087  0.89600217  0.76604532     0.92600
O1938       O  0.38026407  0.87732165  0.76303736    -0.83500
O1939       O  0.26360493  0.80606216  0.65920051    -0.82900
C1940       C  0.26836660  0.83882765  0.52947244     0.96400
O1941       O  0.24843243  0.82928106  0.54780273    -0.72100
O1942       O  0.23697884  0.78539196  0.57676673    -0.75600
Al1943     Al  0.24221327  0.81804499  0.59191217     1.49000
C1944       C  0.24435397  0.77044623  0.58870562     0.91700
O1945       O  0.31325186  0.81720184  0.59380816    -0.81900
O1946       O  0.30814649  0.87772690  0.62920482    -0.75400
Al1947     Al  0.28740546  0.81350911  0.62495184     1.90100
O1948       O  0.32893628  0.85901244  0.58577706    -0.74500
O1949       O  0.27614175  0.87709941  0.57998591    -0.74300
O1950       O  0.29151826  0.85069570  0.54139564    -0.80000
O1951       O  0.24151266  0.84882026  0.60558014    -0.78200
O1952       O  0.27601400  0.83129856  0.60104467    -1.14300
O1953       O  0.22966151  0.80342455  0.63378392    -0.73500
C1954       C  0.23972143  0.79931157  0.65846806     0.97200
C1955       C  0.33203909  0.83934108  0.58517356     0.93600
Al1956     Al  0.29921635  0.86338233  0.58570379     1.55600
O1957       O  0.26421216  0.77946964  0.60693538    -0.78200
C1958       C  0.25322138  0.86982585  0.58917218     0.97700
C1959       C  0.31606340  0.86803872  0.65130388     0.92600
O1960       O  0.31206142  0.84461169  0.64910064    -0.83500
O1961       O  0.55103331  0.12356215  0.49272687    -0.82900
C1962       C  0.52303997  0.08990728  0.87500633     0.96400
O1963       O  0.54062716  0.09328079  0.89516480    -0.72100
O1964       O  0.57173771  0.11655154  0.94461068    -0.75600
Al1965     Al  0.53695619  0.08733790  0.94011019     1.49000
C1966       C  0.58116170  0.14102316  0.94060312     0.91700
O1967       O  0.52370986  0.15472225  0.94514992    -0.81900
O1968       O  0.47281748  0.09990857  0.96293849    -0.75400
Al1969     Al  0.53513533  0.13464134  0.96844618     1.90100
O1970       O  0.49900170  0.12853055  0.90720809    -0.74500
O1971       O  0.47332972  0.05776993  0.93626810    -0.74300
O1972       O  0.50162063  0.08828200  0.88382342    -0.80000
O1973       O  0.50747168  0.05380404  0.93161241    -0.78200
O1974       O  0.52014074  0.10541369  0.94427888    -1.14300
O1975       O  0.53505288  0.08000061  0.98610024    -0.73500
C1976       C  0.54648292  0.09921546  0.00572547     0.97200
C1977       C  0.51015280  0.15090573  0.92023440     0.93600
Al1978     Al  0.48944153  0.09465191  0.92450364     1.55600
O1979       O  0.56669824  0.15110744  0.94278762    -0.78200
C1980       C  0.48314211  0.04377960  0.92870156     0.97700
C1981       C  0.48154496  0.11017699  0.99073103     0.92600
O1982       O  0.50585857  0.12177002  0.99676049    -0.83500
O1983       O  0.46213461  0.21841430  0.60387252    -0.82900
C1984       C  0.42970918  0.18166410  0.72388342     0.96400
O1985       O  0.43380748  0.20089550  0.70592658    -0.72100
O1986       O  0.45834820  0.23557788  0.66011162    -0.75600
Al1987     Al  0.42782437  0.20060388  0.66160213     1.49000
C1988       C  0.48251695  0.24346547  0.66355846     0.91700
O1989       O  0.49169326  0.18349530  0.64784471    -0.81900
O1990       O  0.44000058  0.13671586  0.62886006    -0.75400
Al1991     Al  0.47315545  0.19905801  0.62971687     1.90100
O1992       O  0.46685004  0.15902424  0.68699558    -0.74500
O1993       O  0.39673043  0.13603221  0.65845744    -0.74300
O1994       O  0.42676399  0.16015774  0.71258556    -0.80000
O1995       O  0.39379488  0.17067898  0.66844190    -0.78200
O1996       O  0.44455285  0.18305607  0.65396083    -1.14300
O1997       O  0.42073034  0.20211200  0.61577634    -0.73500
C1998       C  0.43988762  0.21472996  0.59630483     0.97200
C1999       C  0.48825633  0.16901789  0.67193645     0.93600
Al2000     Al  0.43340750  0.15072862  0.67008611     1.55600
O2001       O  0.49107456  0.22785425  0.65917179    -0.78200
C2002       C  0.38327069  0.14588987  0.66856724     0.97700
C2003       C  0.45029050  0.14828211  0.60181284     0.92600
O2004       O  0.45809476  0.17254712  0.59830914    -0.83500
O2005       O  0.47225331  0.29792279  0.85505260    -0.82900
C2006       C  0.43884715  0.25547159  0.97896824     0.96400
O2007       O  0.45236948  0.27907356  0.96784574    -0.72100
O2008       O  0.48302069  0.31675478  0.92208112    -0.75600
Al2009     Al  0.44729332  0.28859055  0.92393978     1.49000
C2010       C  0.50458655  0.31862369  0.91484424     0.91700
O2011       O  0.48862816  0.24825499  0.89285716    -0.81900
O2012       O  0.42784018  0.21592587  0.87369276    -0.75400
Al2013     Al  0.47862204  0.27283770  0.87724209     1.90100
O2014       O  0.45727795  0.22257279  0.92669542    -0.74500
O2015       O  0.39929388  0.23115809  0.90637400    -0.74300
O2016       O  0.42903289  0.23638601  0.95961890    -0.80000
O2017       O  0.41033663  0.26737215  0.93144866    -0.78200
O2018       O  0.45228841  0.26362463  0.90559837    -1.14300
O2019       O  0.44087176  0.29965839  0.88207355    -0.73500
C2020       C  0.45518382  0.30490147  0.85689173     0.97200
C2021       C  0.47802722  0.22838431  0.91159564     0.93600
Al2022     Al  0.43037802  0.22976324  0.91562909     1.55600
O2023       O  0.50518753  0.29901194  0.90392142    -0.78200
C2024       C  0.39268783  0.24453770  0.92357358     0.97700
C2025       C  0.44014219  0.22525123  0.84768578     0.92600
O2026       O  0.45800187  0.24893239  0.84533438    -0.83500
O2027       O  0.50432389  0.37163963  0.74333779    -0.82900
C2028       C  0.51682342  0.40746553  0.61959967     0.96400
O2029       O  0.50375309  0.38474645  0.63283409    -0.72100
O2030       O  0.49458203  0.35027684  0.68142155    -0.75600
Al2031     Al  0.48823371  0.37896884  0.67528350     1.49000
C2032       C  0.51543565  0.34973107  0.68533549     0.91700
O2033       O  0.57073390  0.41986216  0.70548959    -0.81900
O2034       O  0.54037703  0.45285518  0.72139940    -0.75400
Al2035     Al  0.53584565  0.39621441  0.72089172     1.90100
O2036       O  0.56571378  0.44566943  0.67173102    -0.74500
O2037       O  0.49899518  0.43818965  0.68358347    -0.74300
O2038       O  0.52484635  0.42858721  0.63535683    -0.80000
O2039       O  0.47316128  0.40020663  0.66185605    -0.78200
O2040       O  0.51861213  0.40470518  0.69204682    -1.14300
O2041       O  0.47116618  0.37146696  0.71759397    -0.73500
C2042       C  0.48052598  0.36593368  0.74249792     0.97200
C2043       C  0.58041910  0.43955091  0.68665420     0.93600
Al2044     Al  0.53112296  0.43802937  0.67936923     1.55600
O2045       O  0.53599834  0.36997491  0.69450959    -0.78200
C2046       C  0.47960125  0.42403263  0.66576700     0.97700
C2047       C  0.54378826  0.44429432  0.74794955     0.92600
O2048       O  0.53914062  0.42102252  0.75128335    -0.83500
O2049       O  0.39255745  0.50352553  0.51240866    -0.82900
C2050       C  0.42581740  0.50858122  0.64272937     0.96400
O2051       O  0.40710693  0.48810390  0.62960303    -0.72100
O2052       O  0.36982603  0.49355836  0.60178435    -0.75600
Al2053     Al  0.39204785  0.48161631  0.58597965     1.49000
C2054       C  0.35888958  0.50369985  0.58600893     0.91700
O2055       O  0.41623530  0.56004755  0.57117057    -0.81900
O2056       O  0.46070237  0.53113471  0.54055876    -0.75400
Al2057     Al  0.40494068  0.53050192  0.54327689     1.90100
O2058       O  0.45495641  0.56474962  0.58051781    -0.74500
O2059       O  0.44956417  0.49756027  0.58997779    -0.74300
O2060       O  0.43965380  0.52929301  0.62643199    -0.80000
O2061       O  0.41168509  0.46480837  0.57450762    -0.78200
O2062       O  0.41509249  0.51350364  0.57052648    -1.14300
O2063       O  0.37273623  0.46892116  0.54432473    -0.73500
C2064       C  0.37636607  0.47923600  0.51600188     0.97200
C2065       C  0.43993101  0.57421577  0.57939950     0.93600
Al2066     Al  0.44839097  0.52927582  0.58303564     1.55600
O2067       O  0.36972253  0.51664611  0.56046293    -0.78200
C2068       C  0.43433181  0.47301688  0.58618927     0.97700
C2069       C  0.45720794  0.54414404  0.51866261     0.92600
O2070       O  0.43778322  0.54780363  0.51948540    -0.83500
O2071       O  0.30700253  0.46121593  0.91068800    -0.82900
C2072       C  0.25883908  0.42905238  0.79353033     0.96400
O2073       O  0.28225006  0.43987003  0.80414921    -0.72100
O2074       O  0.32150431  0.46811942  0.84572429    -0.75600
Al2075     Al  0.29140097  0.43268498  0.84594517     1.49000
C2076       C  0.32297382  0.49032960  0.84719911     0.91700
O2077       O  0.25648794  0.47888826  0.87915327    -0.81900
O2078       O  0.22324576  0.42036781  0.90069085    -0.75400
Al2079     Al  0.28088576  0.46760028  0.89132243     1.90100
O2080       O  0.22932904  0.44820648  0.84588087    -0.74500
O2081       O  0.23281878  0.38646598  0.86594625    -0.74300
O2082       O  0.23913325  0.41681457  0.81199262    -0.80000
O2083       O  0.26783138  0.39582974  0.83872015    -0.78200
O2084       O  0.26859037  0.43992562  0.86493480    -1.14300
O2085       O  0.30148924  0.42482516  0.88752079    -0.73500
C2086       C  0.30948682  0.44091223  0.91120342     0.97200
C2087       C  0.23676930  0.46957043  0.86064795     0.93600
Al2088     Al  0.23429736  0.41963806  0.85707687     1.55600
O2089       O  0.30448191  0.49201903  0.85975878    -0.78200
C2090       C  0.24489698  0.37899038  0.84748642     0.97700
C2091       C  0.23467667  0.43339407  0.92587383     0.92600
O2092       O  0.25923020  0.44786632  0.92614580    -0.83500
O2093       O  0.17957234  0.20672001  0.68948709    -0.82900
C2094       C  0.16404434  0.23903491  0.80614008     0.96400
O2095       O  0.17758851  0.22914465  0.79614310    -0.72100
O2096       O  0.18728768  0.20044213  0.75434790    -0.75600
Al2097     Al  0.19398306  0.23566428  0.75416069     1.49000
C2098       C  0.16658659  0.17823334  0.75298473     0.91700
O2099       O  0.11238397  0.19004908  0.72114587    -0.81900
O2100       O  0.14398117  0.25341371  0.69787857    -0.75400
Al2101     Al  0.14753161  0.20110471  0.70861153     1.90100
O2102       O  0.11614037  0.22350313  0.74844674    -0.74500
O2103       O  0.18390873  0.28349607  0.73767683    -0.74300
O2104       O  0.15571925  0.25021395  0.78721536    -0.80000
O2105       O  0.20900095  0.27257920  0.76283895    -0.78200
O2106       O  0.16409480  0.22929341  0.73464138    -1.14300
O2107       O  0.21248108  0.24210281  0.71246978    -0.73500
C2108       C  0.20369384  0.22455170  0.69014784     0.97200
C2109       C  0.10207892  0.20100336  0.73630157     0.93600
Al2110     Al  0.15132045  0.25065126  0.74194296     1.55600
O2111       O  0.14639704  0.17646167  0.74032301    -0.78200
C2112       C  0.20243037  0.28952325  0.75734943     0.97700
C2113       C  0.14045282  0.23937220  0.67318395     0.92600
O2114       O  0.14498170  0.22054224  0.67362966    -0.83500
O2115       O  0.20926574  0.16312149  0.57306919    -0.82900
C2116       C  0.24416841  0.16293370  0.95144728     0.96400
O2117       O  0.23658154  0.17763572  0.96422000    -0.72100
O2118       O  0.21053924  0.18806089  0.00926190    -0.75600
Al2119     Al  0.24404936  0.19082998  0.00780632     1.49000
C2120       C  0.18763551  0.16900836  0.01266018     0.91700
O2121       O  0.18616350  0.10112990  0.52304128    -0.81900
O2122       O  0.25403248  0.13060622  0.55392544    -0.75400
Al2123     Al  0.19976005  0.13321148  0.54579809     1.90100
O2124       O  0.22192697  0.10362962  0.50484090    -0.74500
O2125       O  0.28237778  0.17075750  0.51568860    -0.74300
O2126       O  0.25357492  0.15146715  0.96800901    -0.80000
O2127       O  0.27285032  0.19824181  0.49470145    -0.78200
O2128       O  0.22841068  0.15173928  0.52154484    -1.14300
O2129       O  0.24450612  0.19781140  0.55179075    -0.73500
C2130       C  0.22842483  0.18671565  0.57567387     0.97200
C2131       C  0.19767698  0.09049996  0.51010186     0.93600
Al2132     Al  0.24916778  0.13884687  0.51119949     1.55600
O2133       O  0.17621383  0.13913466  0.51966911    -0.78200
C2134       C  0.28930170  0.19081192  0.49829575     0.97700
C2135       C  0.23807176  0.12224712  0.57715905     0.92600
O2136       O  0.21676067  0.12233058  0.57606345    -0.83500
O2137       O  0.79462957  0.24848517  0.60294734    -0.82900
C2138       C  0.82617848  0.24851623  0.72501316     0.96400
O2139       O  0.80810829  0.23323614  0.70597456    -0.72100
O2140       O  0.77511022  0.22477955  0.65882716    -0.75600
Al2141     Al  0.80965002  0.22919254  0.66128337     1.49000
C2142       C  0.76690651  0.24082771  0.66189489     0.91700
O2143       O  0.82767239  0.31175129  0.64902140    -0.81900
O2144       O  0.87466287  0.30485619  0.63251108    -0.75400
Al2145     Al  0.81271836  0.27808237  0.62982802     1.90100
O2146       O  0.85125300  0.31064117  0.68834330    -0.74500
O2147       O  0.87356781  0.26280967  0.66231898    -0.74300
O2148       O  0.84763913  0.26801545  0.71488211    -0.80000
O2149       O  0.83891155  0.22442822  0.66875110    -0.78200
O2150       O  0.82746878  0.26417694  0.65477062    -1.14300
O2151       O  0.80920131  0.22188253  0.61531656    -0.73500
C2152       C  0.79726089  0.22915086  0.59583187     0.97200
C2153       C  0.84224038  0.32277408  0.67283364     0.93600
Al2154     Al  0.85894675  0.28472074  0.67274741     1.55600
O2155       O  0.78240123  0.26545474  0.65769957    -0.78200
C2156       C  0.86346175  0.23887882  0.67063753     0.97700
C2157       C  0.86517441  0.30486066  0.60462044     0.92600
O2158       O  0.84067311  0.29156317  0.59968045    -0.83500
O2159       O  0.88771648  0.43552032  0.49259940    -0.82900
C2160       C  0.91621964  0.42709900  0.86856925     0.96400
O2161       O  0.91056806  0.44115649  0.88560941    -0.72100
O2162       O  0.88896992  0.45344935  0.93170861    -0.75600
Al2163     Al  0.91877956  0.44836192  0.92909977     1.49000
C2164       C  0.86440925  0.43748379  0.93347860     0.91700
O2165       O  0.85367030  0.36784396  0.95308498    -0.81900
O2166       O  0.90233831  0.37055975  0.96351850    -0.75400
Al2167     Al  0.87506106  0.40330977  0.96969049     1.90100
O2168       O  0.87382184  0.36952036  0.90833752    -0.74500
O2169       O  0.94541783  0.41089283  0.93473496    -0.74300
O2170       O  0.91728747  0.40773844  0.88063835    -0.80000
O2171       O  0.95176516  0.44996088  0.92204328    -0.78200
O2172       O  0.90117563  0.41445443  0.94083708    -1.14300
O2173       O  0.92938308  0.46023839  0.97171289    -0.73500
C2174       C  0.91295045  0.45639490  0.99353965     0.97200
C2175       C  0.85416146  0.35736405  0.92663285     0.93600
Al2176     Al  0.90888105  0.39151088  0.92345464     1.55600
O2177       O  0.85546870  0.41394330  0.94309545    -0.78200
C2178       C  0.96039102  0.43413441  0.92424252     0.97700
C2179       C  0.89750148  0.37375209  0.99273851     0.92600
O2180       O  0.89172334  0.39131258  0.99917977    -0.83500
O2181       O  0.92654403  0.13503055  0.83196361    -0.82900
C2182       C  0.92939491  0.16156879  0.70222002     0.96400
O2183       O  0.90911283  0.15223264  0.71998767    -0.72100
O2184       O  0.89667062  0.10999629  0.75346361    -0.75600
Al2185     Al  0.90296970  0.14381856  0.76483439     1.49000
C2186       C  0.90427956  0.09518399  0.76505050     0.91700
O2187       O  0.97400436  0.14388747  0.76455131    -0.81900
O2188       O  0.96837120  0.20504437  0.79951371    -0.75400
Al2189     Al  0.94910487  0.14083609  0.79705525     1.90100
O2190       O  0.99013404  0.18600004  0.75815568    -0.74500
O2191       O  0.93653065  0.20265416  0.74789410    -0.74300
O2192       O  0.95255323  0.17504404  0.71367220    -0.80000
O2193       O  0.90122105  0.17518502  0.77344517    -0.78200
O2194       O  0.93690968  0.15774337  0.77313424    -1.14300
O2195       O  0.89181425  0.13209418  0.80842841    -0.73500
C2196       C  0.90265411  0.12825489  0.83270850     0.97200
C2197       C  0.99272745  0.16609143  0.75570026     0.93600
Al2198     Al  0.95986071  0.18950632  0.75661848     1.55600
O2199       O  0.92521903  0.10501895  0.78153677    -0.78200
C2200       C  0.91308809  0.19505853  0.75498378     0.97700
C2201       C  0.97713255  0.19609750  0.82159049     0.92600
O2202       O  0.97424951  0.17304319  0.81943668    -0.83500
O2203       O  0.09516868  0.21470016  0.93044156    -0.82900
C2204       C  0.09830896  0.24998477  0.55389125     0.96400
O2205       O  0.11391676  0.24886480  0.53403693    -0.72100
O2206       O  0.12120249  0.22201356  0.48938621    -0.75600
Al2207     Al  0.11600142  0.25182470  0.48910050     1.49000
C2208       C  0.10891621  0.19669825  0.98738066     0.91700
O2209       O  0.03477827  0.17796764  0.98333928    -0.81900
O2210       O  0.03734752  0.23266215  0.96455197    -0.75400
Al2211     Al  0.06692078  0.19967740  0.96026398     1.90100
O2212       O  0.03467915  0.21013991  0.51972806    -0.74500
O2213       O  0.08155600  0.28081858  0.49203473    -0.74300
O2214       O  0.07757830  0.24978652  0.54482801    -0.80000
O2215       O  0.11663896  0.28132685  0.99876166    -0.78200
O2216       O  0.07969651  0.22889674  0.98423957    -1.14300
O2217       O  0.11910803  0.25686355  0.94287582    -0.73500
C2218       C  0.11279480  0.23800340  0.92304651     0.97200
C2219       C  0.02303499  0.18783674  0.50658200     0.93600
Al2220     Al  0.06049666  0.24387828  0.50290174     1.55600
O2221       O  0.08401753  0.18500009  0.98626054    -0.78200
C2222       C  0.10568224  0.29557677  0.49754035     0.97700
C2223       C  0.03692057  0.22290440  0.93679097     0.92600
O2224       O  0.04949198  0.21110884  0.93176316    -0.83500
O2225       O  0.12900968  0.53961772  0.76738326    -0.82900
C2226       C  0.10494646  0.50749307  0.89482855     0.96400
O2227       O  0.09487665  0.51824019  0.87794225    -0.72100
O2228       O  0.12278176  0.56092918  0.84442937    -0.75600
Al2229     Al  0.09551552  0.52692798  0.83350324     1.49000
C2230       C  0.14569081  0.57581570  0.83442240     0.91700
O2231       O  0.16652358  0.52713646  0.83224496    -0.81900
O2232       O  0.09990722  0.46740908  0.79418688    -0.75400
Al2233     Al  0.14510803  0.53161072  0.80079962     1.90100
O2234       O  0.14057035  0.48475803  0.83614845    -0.74500
O2235       O  0.06980378  0.46729317  0.84791364    -0.74300
O2236       O  0.11362118  0.49358065  0.88229757    -0.80000
O2237       O  0.06220641  0.49607420  0.82582952    -0.78200
O2238       O  0.11560843  0.51348311  0.82393455    -1.14300
O2239       O  0.09452133  0.53812699  0.79014127    -0.73500
C2240       C  0.11010142  0.54374653  0.76646941     0.97200
C2241       C  0.16302602  0.50477544  0.83970105     0.93600
Al2242     Al  0.10660581  0.48103568  0.83834579     1.55600
O2243       O  0.15736216  0.56624430  0.81903837    -0.78200
C2244       C  0.05440923  0.47593397  0.84348414     0.97700
C2245       C  0.11784375  0.47743104  0.77230765     0.92600
O2246       O  0.13787360  0.50054273  0.77568599    -0.83500
O2247       O  0.20390593  0.45114801  0.67489256    -0.82900
C2248       C  0.19157404  0.43986406  0.54090614     0.96400
O2249       O  0.19949190  0.42844208  0.55995796    -0.72100
O2250       O  0.23705481  0.45310587  0.59976766    -0.75600
Al2251     Al  0.20249293  0.42561890  0.60483690     1.49000
C2252       C  0.25116473  0.47439044  0.61425401     0.91700
O2253       O  0.20701153  0.49886041  0.61183751    -0.81900
O2254       O  0.14029081  0.43154397  0.63298604    -0.75400
Al2255     Al  0.20428321  0.47270124  0.64138058     1.90100
O2256       O  0.16643996  0.47620461  0.59513491    -0.74500
O2257       O  0.14568567  0.40427996  0.58071415    -0.74300
O2258       O  0.17778995  0.44958564  0.55071668    -0.80000
O2259       O  0.17006761  0.39197961  0.60568725    -0.78200
O2260       O  0.18906853  0.44619927  0.61291585    -1.14300
O2261       O  0.20949976  0.42160325  0.64962910    -0.73500
C2262       C  0.21138826  0.43462647  0.67500329     0.97200
C2263       C  0.18705068  0.49808856  0.59995777     0.93600
Al2264     Al  0.15998352  0.44078186  0.59216281     1.55600
O2265       O  0.24075724  0.48435822  0.63140057    -0.78200
C2266       C  0.15192097  0.38695790  0.58556045     0.97700
C2267       C  0.14801059  0.44723273  0.65725309     0.92600
O2268       O  0.17150098  0.46627956  0.65896263    -0.83500
O2269       O  0.88891073  0.50865962  0.73925091    -0.82900
C2270       C  0.91904487  0.50121968  0.61563819     0.96400
O2271       O  0.90745925  0.51305180  0.62692215    -0.72100
O2272       O  0.87849134  0.52128023  0.67342449    -0.75600
Al2273     Al  0.91347064  0.52810288  0.67053045     1.49000
C2274       C  0.85673709  0.50110263  0.67897624     0.91700
O2275       O  0.87018269  0.44514036  0.69225603    -0.81900
O2276       O  0.93699718  0.47985700  0.72277639    -0.75400
Al2277     Al  0.88121271  0.47824175  0.71319700     1.90100
O2278       O  0.90723060  0.45160169  0.67240450    -0.74500
O2279       O  0.96377232  0.52190101  0.68278126    -0.74300
O2280       O  0.92977031  0.49246444  0.63453901    -0.80000
O2281       O  0.94988432  0.54580203  0.66019698    -0.78200
O2282       O  0.90905245  0.49780841  0.68776798    -1.14300
O2283       O  0.91992169  0.54443445  0.71369135    -0.73500
C2284       C  0.90556751  0.53341639  0.73885793     0.97200
C2285       C  0.88357146  0.43623972  0.67957838     0.93600
Al2286     Al  0.93229714  0.48763759  0.67895759     1.55600
O2287       O  0.85568852  0.48018067  0.68750868    -0.78200
C2288       C  0.96824380  0.54149761  0.66530151     0.97700
C2289       C  0.92000757  0.46997060  0.74509816     0.92600
O2290       O  0.89917682  0.47052294  0.74368901    -0.83500
O2291       O  0.84678508  0.54231252  0.85044150    -0.82900
C2292       C  0.82546138  0.56755532  0.96946900     0.96400
O2293       O  0.83873730  0.55726622  0.95960860    -0.72100
O2294       O  0.85019599  0.53067180  0.91506508    -0.75600
Al2295     Al  0.85737750  0.56634757  0.91847238     1.49000
C2296       C  0.82963493  0.50906292  0.90898561     0.91700
O2297       O  0.77730504  0.52554788  0.87670409    -0.81900
O2298       O  0.80843395  0.58704329  0.86128563    -0.75400
Al2299     Al  0.81380017  0.53618224  0.86766914     1.90100
O2300       O  0.78086246  0.55557824  0.91020171    -0.74500
O2301       O  0.84861517  0.61576552  0.90382821    -0.74300
O2302       O  0.81878869  0.58005851  0.95042154    -0.80000
O2303       O  0.87216563  0.60302294  0.93011373    -0.78200
O2304       O  0.82885809  0.56189949  0.89700657    -1.14300
O2305       O  0.87804817  0.57562638  0.87813672    -0.73500
C2306       C  0.87058899  0.56054291  0.85324924     0.97200
C2307       C  0.76670139  0.53571470  0.89321316     0.93600
Al2308     Al  0.81580786  0.58278201  0.90541545     1.55600
O2309       O  0.81007987  0.50895982  0.89663531    -0.78200
C2310       C  0.86656856  0.62069549  0.92416653     0.97700
C2311       C  0.80626961  0.57426802  0.83571109     0.92600
O2312       O  0.81492178  0.55866317  0.83457090    -0.83500
O2313       O  0.94892119  0.77944393  0.58261756    -0.82900
C2314       C  0.92127530  0.76230334  0.94706951     0.96400
O2315       O  0.93925293  0.75964173  0.96041392    -0.72100
O2316       O  0.97731412  0.80136454  0.98856232    -0.75600
Al2317     Al  0.95332528  0.76705906  0.00438368     1.49000
C2318       C  0.98804752  0.82247363  0.00437041     0.91700
O2319       O  0.92710570  0.81400255  0.52269821    -0.81900
O2320       O  0.88040831  0.73963235  0.55225514    -0.75400
Al2321     Al  0.93735540  0.79476693  0.55099443     1.90100
O2322       O  0.88815978  0.78004507  0.51228202    -0.74500
O2323       O  0.89142433  0.71723204  0.50298047    -0.74300
O2324       O  0.90517250  0.76569690  0.96335455    -0.80000
O2325       O  0.92827029  0.72152203  0.52021545    -0.78200
O2326       O  0.92693407  0.76772310  0.52357834    -1.14300
O2327       O  0.96810957  0.76429666  0.55100165    -0.73500
C2328       C  0.96522923  0.77174000  0.57900498     0.97200
C2329       C  0.90353562  0.80474490  0.51398481     0.93600
Al2330     Al  0.89370953  0.75055765  0.51009693     1.55600
O2331       O  0.97274743  0.81584455  0.53481161    -0.78200
C2332       C  0.90574722  0.70728957  0.50799426     0.97700
C2333       C  0.88398809  0.75637778  0.57374777     0.92600
O2334       O  0.90426786  0.77928468  0.57369005    -0.83500
O2335       O  0.04985383  0.83313777  0.68225150    -0.82900
C2336       C  0.09693485  0.85089114  0.80530385     0.96400
O2337       O  0.07521732  0.83091627  0.79726835    -0.72100
O2338       O  0.03474251  0.83049646  0.77276187    -0.75600
Al2339     Al  0.05662553  0.81790281  0.75742553     1.49000
C2340       C  0.02289163  0.83916954  0.75637248     0.91700
O2341       O  0.08107528  0.89430292  0.73566752    -0.81900
O2342       O  0.11872487  0.86075839  0.69401690    -0.75400
Al2343     Al  0.06573905  0.86269133  0.71007849     1.90100
O2344       O  0.12042572  0.89861487  0.73558867    -0.74500
O2345       O  0.11513794  0.83124922  0.74952690    -0.74300
O2346       O  0.11248967  0.86715316  0.78468781    -0.80000
O2347       O  0.07448697  0.79888362  0.74973921    -0.78200
O2348       O  0.07854566  0.84733232  0.73596039    -1.14300
O2349       O  0.03439848  0.80081579  0.71867646    -0.73500
C2350       C  0.03484201  0.80904522  0.68964048     0.97200
C2351       C  0.10581706  0.90854243  0.73861090     0.93600
Al2352     Al  0.11351045  0.86278909  0.74014096     1.55600
O2353       O  0.03284605  0.85095872  0.73030251    -0.78200
C2354       C  0.09833532  0.80748881  0.75627390     0.97700
C2355       C  0.11261678  0.87380409  0.67470013     0.92600
O2356       O  0.09442491  0.87797985  0.68198981    -0.83500
O2357       O  0.13512832  0.62570777  0.51364925    -0.82900
C2358       C  0.11160468  0.58473833  0.64085400     0.96400
O2359       O  0.11529062  0.60715825  0.63212697    -0.72100
O2360       O  0.15548699  0.64507049  0.60313565    -0.75600
Al2361     Al  0.11967969  0.62437346  0.59095907     1.49000
C2362       C  0.17398576  0.65736409  0.58369615     0.91700
O2363       O  0.16712291  0.59755504  0.56804873    -0.81900
O2364       O  0.09378157  0.55941356  0.53042737    -0.75400
Al2365     Al  0.15034939  0.61165846  0.54166942     1.90100
O2366       O  0.13097534  0.55814504  0.57169144    -0.74500
O2367       O  0.07091298  0.56636495  0.58596107    -0.74300
O2368       O  0.10951189  0.56785881  0.62057595    -0.80000
O2369       O  0.08275589  0.60820072  0.58618296    -0.78200
O2370       O  0.12382425  0.60064321  0.56981191    -1.14300
O2371       O  0.12343422  0.64500862  0.55067810    -0.73500
C2372       C  0.12763351  0.64180980  0.52092915     0.97200
C2373       C  0.15584336  0.57278380  0.57329726     0.93600
Al2374     Al  0.10288795  0.56593037  0.57618404     1.55600
O2375       O  0.17350260  0.64650125  0.55750609    -0.78200
C2376       C  0.06599957  0.58451592  0.59252312     0.97700
C2377       C  0.11173638  0.56385936  0.51010683     0.92600
O2378       O  0.13504231  0.58103624  0.51634065    -0.83500
O2379       O  0.18157023  0.72640331  0.91356785    -0.82900
C2380       C  0.19556694  0.75845230  0.78209977     0.96400
O2381       O  0.17576628  0.73753902  0.79291099    -0.72100
O2382       O  0.17739536  0.70075328  0.82587500    -0.75600
Al2383     Al  0.16450271  0.72353059  0.83634543     1.49000
C2384       C  0.18401091  0.68909768  0.84584508     0.91700
O2385       O  0.23927735  0.74800076  0.85664464    -0.81900
O2386       O  0.20977320  0.79293712  0.88731648    -0.75400
Al2387     Al  0.20972665  0.73760220  0.88436299     1.90100
O2388       O  0.24486560  0.78767335  0.84713888    -0.74500
O2389       O  0.17755285  0.78262411  0.83356947    -0.74300
O2390       O  0.21199503  0.77561913  0.80072157    -0.80000
O2391       O  0.14560556  0.74192850  0.84028872    -0.78200
O2392       O  0.19408815  0.74764563  0.85481912    -1.14300
O2393       O  0.14900838  0.70562272  0.87866706    -0.73500
C2394       C  0.15763752  0.70978506  0.90798382     0.97200
C2395       C  0.25345910  0.77165724  0.84685543     0.93600
Al2396     Al  0.20951122  0.78174288  0.84371015     1.55600
O2397       O  0.19559537  0.70110889  0.87128155    -0.78200
C2398       C  0.15350795  0.76513883  0.83029865     0.97700
C2399       C  0.22401325  0.79037411  0.90836289     0.92600
O2400       O  0.22776235  0.77097466  0.90689629    -0.83500
O2401       O  0.83349792  0.03511694  0.57173815    -0.82900
C2402       C  0.85155563  0.08156769  0.95351263     0.96400
O2403       O  0.83966151  0.05804993  0.96489024    -0.72100
O2404       O  0.82754246  0.01928957  0.00980300    -0.75600
Al2405     Al  0.82206903  0.04907291  0.00648770     1.49000
C2406       C  0.84753507  0.01741288  0.01557833     0.91700
O2407       O  0.90171468  0.08970464  0.54259773    -0.81900
O2408       O  0.87233345  0.11864957  0.56441409    -0.75400
Al2409     Al  0.86595255  0.06268231  0.55392136     1.90100
O2410       O  0.89675058  0.11690202  0.51062068    -0.74500
O2411       O  0.82807096  0.10469259  0.52885236    -0.74300
O2412       O  0.85770856  0.10130180  0.97136993    -0.80000
O2413       O  0.80585323  0.07132330  0.49725585    -0.78200
O2414       O  0.84996057  0.07357599  0.52671625    -1.14300
O2415       O  0.80146895  0.03665709  0.54556054    -0.73500
C2416       C  0.80964518  0.02908062  0.56964490     0.97200
C2417       C  0.91151855  0.11049734  0.52525519     0.93600
Al2418     Al  0.86173565  0.10789728  0.52033729     1.55600
O2419       O  0.86884336  0.03964813  0.52359627    -0.78200
C2420       C  0.80969369  0.09295034  0.50849310     0.97700
C2421       C  0.87445376  0.10711706  0.58925413     0.92600
O2422       O  0.86558400  0.08272545  0.58876689    -0.83500
O2423       O  0.78482889  0.94571989  0.67404153    -0.82900
C2424       C  0.77053980  0.91438070  0.80666864     0.96400
O2425       O  0.76875789  0.93346457  0.79480225    -0.72100
O2426       O  0.80794895  0.97114858  0.76240031    -0.75600
Al2427     Al  0.77232062  0.94797902  0.75143009     1.49000
C2428       C  0.82651864  0.98336924  0.74281427     0.91700
O2429       O  0.82494020  0.92646034  0.72659048    -0.81900
O2430       O  0.74902677  0.87821574  0.70405671    -0.75400
Al2431     Al  0.80358502  0.93565479  0.70181695     1.90100
O2432       O  0.79238553  0.88658467  0.73901430    -0.74500
O2433       O  0.72992493  0.88932401  0.75899879    -0.74300
O2434       O  0.77479477  0.89976790  0.78870038    -0.80000
O2435       O  0.73494109  0.92774936  0.74581129    -0.78200
O2436       O  0.77917868  0.92492689  0.73300414    -1.14300
O2437       O  0.77473520  0.96672230  0.70996564    -0.73500
C2438       C  0.77824830  0.96259856  0.68039195     0.97200
C2439       C  0.81673261  0.90290166  0.73546737     0.93600
Al2440     Al  0.76277229  0.89130688  0.74610546     1.55600
O2441       O  0.82590883  0.97240131  0.71620091    -0.78200
C2442       C  0.72145924  0.90535671  0.75925332     0.97700
C2443       C  0.76458200  0.88126751  0.68116378     0.92600
O2444       O  0.78722435  0.90183438  0.67968475    -0.83500
O2445       O  0.51486750  0.87406349  0.51899348    -0.82900
C2446       C  0.50767927  0.91428848  0.63305241     0.96400
O2447       O  0.52085085  0.90366142  0.62334021    -0.72100
O2448       O  0.53107357  0.87371073  0.58192182    -0.75600
Al2449     Al  0.53526887  0.90789631  0.58019907     1.49000
C2450       C  0.51149420  0.85104206  0.58492682     0.91700
O2451       O  0.45193921  0.85880412  0.56500787    -0.81900
O2452       O  0.48468054  0.92219609  0.52200505    -0.75400
Al2453     Al  0.48489091  0.86857929  0.54466701     1.90100
O2454       O  0.45803903  0.89766982  0.57701588    -0.74500
O2455       O  0.52636461  0.95461390  0.55849528    -0.74300
O2456       O  0.49955299  0.92557657  0.61354051    -0.80000
O2457       O  0.55093058  0.94514581  0.58651704    -0.78200
O2458       O  0.50412651  0.89982296  0.56391715    -1.14300
O2459       O  0.54954692  0.91161413  0.53641066    -0.73500
C2460       C  0.53848820  0.89306863  0.51525128     0.97200
C2461       C  0.44285149  0.87324032  0.57354777     0.93600
Al2462     Al  0.49329162  0.92299295  0.56750082     1.55600
O2463       O  0.48945410  0.84781460  0.57755108    -0.78200
C2464       C  0.54569841  0.96226742  0.57717266     0.97700
C2465       C  0.47550992  0.90295578  0.50238738     0.92600
O2466       O  0.47571578  0.88234590  0.50988555    -0.83500
O2467       O  0.54985434  0.82810338  0.90738469    -0.82900
C2468       C  0.58284221  0.81637202  0.78456916     0.96400
O2469       O  0.58091992  0.83590470  0.79366693    -0.72100
O2470       O  0.54046434  0.83502773  0.81694405    -0.75600
Al2471     Al  0.57418391  0.84695131  0.83403766     1.49000
C2472       C  0.51942171  0.82621634  0.83208144     0.91700
O2473       O  0.52154076  0.76938413  0.84927503    -0.81900
O2474       O  0.59180124  0.80268317  0.89500060    -0.75400
Al2475     Al  0.53683616  0.79987397  0.87735225     1.90100
O2476       O  0.55683704  0.76552129  0.85074059    -0.74500
O2477       O  0.61939343  0.83409139  0.84139448    -0.74300
O2478       O  0.58171387  0.79926293  0.80410462    -0.80000
O2479       O  0.61044196  0.86568943  0.84427743    -0.78200
O2480       O  0.56592674  0.81662141  0.85323308    -1.14300
O2481       O  0.56833232  0.86215552  0.87354372    -0.73500
C2482       C  0.56048038  0.85271526  0.90204580     0.97200
C2483       C  0.53234297  0.75546536  0.84589524     0.93600
Al2484     Al  0.58587850  0.80187180  0.84875564     1.55600
O2485       O  0.51609080  0.81276682  0.85724334    -0.78200
C2486       C  0.62602775  0.85800876  0.83648582     0.97700
C2487       C  0.57229932  0.78888895  0.91352932     0.92600
O2488       O  0.54964475  0.78343449  0.90501062    -0.83500
O2489       O  0.63647885  0.13330235  0.74160269    -0.82900
C2490       C  0.59891955  0.10794519  0.61935448     0.96400
O2491       O  0.62212472  0.11885334  0.63102160    -0.72100
O2492       O  0.65830623  0.14568298  0.67795447    -0.75600
Al2493     Al  0.63010317  0.11014638  0.67302111     1.49000
C2494       C  0.65913680  0.16723063  0.68229557     0.91700
O2495       O  0.58845227  0.15049105  0.70028549    -0.81900
O2496       O  0.55823002  0.08269279  0.72500425    -0.75400
Al2497     Al  0.61216006  0.14013016  0.71801172     1.90100
O2498       O  0.55951633  0.11420564  0.67660879    -0.74500
O2499       O  0.57325785  0.05831901  0.68280416    -0.74300
O2500       O  0.57856515  0.09442369  0.63653405    -0.80000
O2501       O  0.61067662  0.07363147  0.65936163    -0.78200
O2502       O  0.60406497  0.11325496  0.69102250    -1.14300
O2503       O  0.63932511  0.10174311  0.71517940    -0.73500
C2504       C  0.64387519  0.11630163  0.74031973     0.97200
C2505       C  0.56649347  0.13697649  0.68647007     0.93600
Al2506     Al  0.57079502  0.08972126  0.68127318     1.55600
O2507       O  0.63891177  0.16720696  0.69146902    -0.78200
C2508       C  0.58755199  0.05487175  0.66325998     0.97700
C2509       C  0.56563449  0.09795002  0.74917488     0.92600
O2510       O  0.58701719  0.11950607  0.74901367    -0.83500
O2511       O  0.70960607  0.16878092  0.85732797    -0.82900
C2512       C  0.74971770  0.17658862  0.97768420     0.96400
O2513       O  0.72691238  0.16372383  0.96520769    -0.72100
O2514       O  0.69057420  0.15502920  0.91988931    -0.75600
Al2515     Al  0.72041869  0.15039069  0.92191694     1.49000
C2516       C  0.68858774  0.17539655  0.91877958     0.91700
O2517       O  0.75712422  0.23511028  0.89770501    -0.81900
O2518       O  0.79067338  0.20699333  0.87358316    -0.75400
Al2519     Al  0.73387091  0.20012636  0.88096448     1.90100
O2520       O  0.78496352  0.22989044  0.92714988    -0.74500
O2521       O  0.77935362  0.16413525  0.90767079    -0.74300
O2522       O  0.77049964  0.18662251  0.96078359    -0.80000
O2523       O  0.74318003  0.13641817  0.93116175    -0.78200
O2524       O  0.74444525  0.18235112  0.90626159    -1.14300
O2525       O  0.71238852  0.13536922  0.87852471    -0.73500
C2526       C  0.70516925  0.14519795  0.85571011     0.97200
C2527       C  0.77776574  0.24478884  0.91459843     0.93600
Al2528     Al  0.77810246  0.19556770  0.91628197     1.55600
O2529       O  0.70798951  0.19728247  0.91074105    -0.78200
C2530       C  0.76684583  0.14395170  0.92528281     0.97700
C2531       C  0.78098815  0.21136548  0.84867539     0.92600
O2532       O  0.75768763  0.20635691  0.84791091    -0.83500
O2533       O  0.87227397  0.78709121  0.82994931    -0.82900
C2534       C  0.84788784  0.76235972  0.69739915     0.96400
O2535       O  0.85592498  0.75292733  0.71880438    -0.72100
O2536       O  0.89736249  0.78062541  0.75337476    -0.75600
Al2537     Al  0.86220763  0.75493665  0.76313216     1.49000
C2538       C  0.91240531  0.80312750  0.76508119     0.91700
O2539       O  0.87057288  0.83115756  0.76516951    -0.81900
O2540       O  0.80404545  0.76804407  0.78990323    -0.75400
Al2541     Al  0.86914708  0.80589458  0.79510224     1.90100
O2542       O  0.83049251  0.80898635  0.74737032    -0.74500
O2543       O  0.80537978  0.73536016  0.74235468    -0.74300
O2544       O  0.83791529  0.77644373  0.70574017    -0.80000
O2545       O  0.82852497  0.72431213  0.77144620    -0.78200
O2546       O  0.85145975  0.77800854  0.76904793    -1.14300
O2547       O  0.87166259  0.75349862  0.80645485    -0.73500
C2548       C  0.87676804  0.76838496  0.83048638     0.97200
C2549       C  0.85095761  0.83072146  0.75296992     0.93600
Al2550     Al  0.82212609  0.77284120  0.74859536     1.55600
O2551       O  0.90335503  0.81529864  0.78039118    -0.78200
C2552       C  0.81030925  0.71778260  0.75109559     0.97700
C2553       C  0.81360645  0.78345509  0.81426076     0.92600
O2554       O  0.83787226  0.80049055  0.81573060    -0.83500
O2555       O  0.78674603  0.88355406  0.93347525    -0.82900
C2556       C  0.76944062  0.84464262  0.55883948     0.96400
O2557       O  0.77376255  0.86440213  0.54188627    -0.72100
O2558       O  0.79201701  0.90009594  0.49561650    -0.75600
Al2559     Al  0.76439444  0.86363571  0.49848461     1.49000
C2560       C  0.81275761  0.90949821  0.99382238     0.91700
O2561       O  0.82578832  0.85455767  0.96783327    -0.81900
O2562       O  0.77520023  0.80498347  0.95626953    -0.75400
Al2563     Al  0.80309688  0.86662210  0.95458078     1.90100
O2564       O  0.81256280  0.82996398  0.51297323    -0.74500
O2565       O  0.73896462  0.79906952  0.49365913    -0.74300
O2566       O  0.77017786  0.82516594  0.54618577    -0.80000
O2567       O  0.72744153  0.83145628  0.00466698    -0.78200
O2568       O  0.77768814  0.84885014  0.98386962    -1.14300
O2569       O  0.74774758  0.86597921  0.95572643    -0.73500
C2570       C  0.76369580  0.87961739  0.93362223     0.97200
C2571       C  0.83265242  0.84265815  0.49526538     0.93600
Al2572     Al  0.77652411  0.81779728  0.50137457     1.55600
O2573       O  0.82223703  0.89612266  0.98261673    -0.78200
C2574       C  0.72389867  0.80693696  0.50368605     0.97700
C2575       C  0.78045119  0.81499923  0.92771951     0.92600
O2576       O  0.78714230  0.83903200  0.92353794    -0.83500
O2577       O  0.46073279  0.56411213  0.75893548    -0.82900
C2578       C  0.47986605  0.57834183  0.88805047     0.96400
O2579       O  0.46275077  0.56813325  0.86658520    -0.72100
O2580       O  0.43468224  0.54906653  0.81581454    -0.75600
Al2581     Al  0.46879224  0.55586810  0.82836446     1.49000
C2582       C  0.42634968  0.56477658  0.81103806     0.91700
O2583       O  0.48646376  0.63343898  0.79432888    -0.81900
O2584       O  0.53504449  0.63080235  0.79514567    -0.75400
Al2585     Al  0.47496718  0.59807364  0.78032810     1.90100
O2586       O  0.50419181  0.63631079  0.84185102    -0.74500
O2587       O  0.53278505  0.59056131  0.83358898    -0.74300
O2588       O  0.50277413  0.59675241  0.87975132    -0.80000
O2589       O  0.49765639  0.55381797  0.84639700    -0.78200
O2590       O  0.48723492  0.58873344  0.81419244    -1.14300
O2591       O  0.47261562  0.54109453  0.78994064    -0.73500
C2592       C  0.46276530  0.54378423  0.76407622     0.97200
C2593       C  0.49585986  0.64582268  0.82044142     0.93600
Al2594     Al  0.51632441  0.61192099  0.83550008     1.55600
O2595       O  0.44184245  0.58797264  0.80102442    -0.78200
C2596       C  0.52220825  0.56809593  0.84766430     0.97700
C2597       C  0.52917803  0.62743775  0.76492041     0.92600
O2598       O  0.50635290  0.60984618  0.75622738    -0.83500
O2599       O  0.56102131  0.75169279  0.66298552    -0.82900
C2600       C  0.57548589  0.74063033  0.53309952     0.96400
O2601       O  0.58841709  0.76145505  0.54966846    -0.72100
O2602       O  0.56487402  0.77929249  0.58581978    -0.75600
Al2603     Al  0.59055784  0.76992075  0.59416496     1.49000
C2604       C  0.54282157  0.77232729  0.59789167     0.91700
O2605       O  0.51591291  0.70152376  0.60347851    -0.81900
O2606       O  0.58118781  0.70221031  0.63082835    -0.75400
Al2607     Al  0.54137090  0.72741442  0.63140446     1.90100
O2608       O  0.53759912  0.68164077  0.59289952    -0.74500
O2609       O  0.60988873  0.73174605  0.57594616    -0.74300
O2610       O  0.56470002  0.71755747  0.54562973    -0.80000
O2611       O  0.62231428  0.76895520  0.59953073    -0.78200
O2612       O  0.56842381  0.73633961  0.60483692    -1.14300
O2613       O  0.59497269  0.78345619  0.63705868    -0.73500
C2614       C  0.58049814  0.77463270  0.66185120     0.97200
C2615       C  0.51609761  0.68100967  0.59584413     0.93600
Al2616     Al  0.57305586  0.71064117  0.58817206     1.55600
O2617       O  0.53091640  0.75123848  0.61424889    -0.78200
C2618       C  0.62760387  0.75534207  0.58092407     0.97700
C2619       C  0.56559904  0.69644201  0.65503855     0.92600
O2620       O  0.54790320  0.70277931  0.65512590    -0.83500
O2621       O  0.76218941  0.54319431  0.60208430    -0.82900
C2622       C  0.75749321  0.57772552  0.72010461     0.96400
O2623       O  0.77807011  0.58603526  0.70258119    -0.72100
O2624       O  0.79334090  0.55902804  0.66571293    -0.75600
Al2625     Al  0.78397579  0.58496048  0.65709399     1.49000
C2626       C  0.78163818  0.53426095  0.66677326     0.91700
O2627       O  0.70999158  0.51196100  0.66727805    -0.81900
O2628       O  0.71679804  0.57440990  0.61932762    -0.75400
Al2629     Al  0.73734402  0.53109995  0.63564804     1.90100
O2630       O  0.69563555  0.53892518  0.66676220    -0.74500
O2631       O  0.74850016  0.60947005  0.66914487    -0.74300
O2632       O  0.73459558  0.56967825  0.70845757    -0.80000
O2633       O  0.78577840  0.61820682  0.64999945    -0.78200
O2634       O  0.74960124  0.56306640  0.65208693    -1.14300
O2635       O  0.79222613  0.58463008  0.61176041    -0.73500
C2636       C  0.78258107  0.56430510  0.59372663     0.97200
C2637       C  0.69153811  0.51620323  0.67232809     0.93600
Al2638     Al  0.72641735  0.57249779  0.66435054     1.55600
O2639       O  0.75757189  0.52078877  0.66064909    -0.78200
C2640       C  0.77234096  0.62570197  0.66514432     0.97700
C2641       C  0.70930874  0.55431914  0.60068677     0.92600
O2642       O  0.71562620  0.53703939  0.60722010    -0.83500
O2643       O  0.58339808  0.45322605  0.49297941    -0.82900
C2644       C  0.58201028  0.49145372  0.86831774     0.96400
O2645       O  0.56794210  0.47220288  0.88694907    -0.72100
O2646       O  0.56024298  0.43735430  0.93261742    -0.75600
Al2647     Al  0.56584896  0.47273855  0.93184928     1.49000
C2648       C  0.57538367  0.42845875  0.92732677     0.91700
O2649       O  0.64665637  0.48738380  0.93089395    -0.81900
O2650       O  0.64314179  0.53725053  0.95731518    -0.75400
Al2651     Al  0.61532898  0.47379329  0.95575857     1.90100
O2652       O  0.64560694  0.51588864  0.89815521    -0.74500
O2653       O  0.60001373  0.53700815  0.93450627    -0.74300
O2654       O  0.60170073  0.51282982  0.87826096    -0.80000
O2655       O  0.56153473  0.50260091  0.92742147    -0.78200
O2656       O  0.60089622  0.49006886  0.93529875    -1.14300
O2657       O  0.56106239  0.47175364  0.97811895    -0.73500
C2658       C  0.56918390  0.45954501  0.99585170     0.97200
C2659       C  0.65683253  0.50386364  0.90823268     0.93600
Al2660     Al  0.62074463  0.52269316  0.91870138     1.55600
O2661       O  0.59994413  0.44371654  0.92791296    -0.78200
C2662       C  0.57618616  0.52734891  0.92735881     0.97700
C2663       C  0.64483866  0.52588149  0.98284428     0.92600
O2664       O  0.63172631  0.50105832  0.98569945    -0.83500
C2665       C  0.68091374  0.52275212  0.55771377    -0.03000
C2666       C  0.69242092  0.54864183  0.57083770     0.06700
C2667       C  0.68930047  0.56777242  0.55293050    -0.03100
C2668       C  0.67390104  0.56027443  0.52378634    -0.03100
C2669       C  0.66423150  0.53468211  0.51079055     0.06800
C2670       C  0.67198853  0.51817673  0.52597587    -0.03300
Br2671     Br  0.68499707  0.50580078  0.99193975    -0.01800
Br2672     Br  0.67414513  0.49142254  0.58225168    -0.01900
Br2673     Br  0.66773303  0.58521562  0.50075413    -0.01900
Br2674     Br  0.70534287  0.60366690  0.56798576    -0.01900
C2675       C  0.52401641  0.53980402  0.89435067    -0.03000
C2676       C  0.53743978  0.55945176  0.86954657     0.06700
C2677       C  0.56529419  0.57202064  0.86881107    -0.03100
C2678       C  0.57888489  0.56368826  0.88997957    -0.03100
C2679       C  0.56510188  0.54359632  0.91366997     0.06800
C2680       C  0.53807556  0.53382850  0.91733753    -0.03300
Br2681     Br  0.52020315  0.51215720  0.95499502    -0.01800
Br2682     Br  0.48614421  0.51827710  0.89728679    -0.01900
Br2683     Br  0.61644548  0.57978618  0.88540196    -0.01900
Br2684     Br  0.58555072  0.59973573  0.83758410    -0.01900
C2685       C  0.56135607  0.67361957  0.74259762    -0.03000
C2686       C  0.54748604  0.64572624  0.73871307     0.06700
C2687       C  0.54662643  0.63584543  0.70709126    -0.03100
C2688       C  0.55502285  0.65279193  0.67960754    -0.03100
C2689       C  0.56568295  0.68021453  0.68325832     0.06800
C2690       C  0.57044619  0.69063291  0.71500785    -0.03300
Br2691     Br  0.58905570  0.72846455  0.72039390    -0.01800
Br2692     Br  0.56637039  0.68901801  0.78515786    -0.01900
Br2693     Br  0.54926411  0.63805052  0.63654174    -0.01900
Br2694     Br  0.53421609  0.59895992  0.70101034    -0.01900
C2695       C  0.65932325  0.79021339  0.54080728    -0.03000
C2696       C  0.65251841  0.76766296  0.56066365     0.06700
C2697       C  0.66724507  0.75483299  0.55639559    -0.03100
C2698       C  0.68977117  0.76595761  0.53572245    -0.03100
C2699       C  0.69650268  0.78879567  0.51660467     0.06800
C2700       C  0.67914227  0.79865274  0.51702492    -0.03300
Br2701     Br  0.67651496  0.82420047  0.98497761    -0.01800
Br2702     Br  0.64349195  0.81173409  0.54570116    -0.01900
Br2703     Br  0.71115923  0.74974506  0.53421785    -0.01900
Br2704     Br  0.65754708  0.72280244  0.58043291    -0.01900
C2705       C  0.77704344  0.68487448  0.71037175    -0.03000
C2706       C  0.79887007  0.69237818  0.73151295     0.06700
C2707       C  0.81269640  0.67846127  0.72851665    -0.03100
C2708       C  0.80653051  0.65966495  0.70347017    -0.03100
C2709       C  0.78429004  0.65166068  0.68316435     0.06800
C2710       C  0.76976399  0.66463116  0.68697241    -0.03300
Br2711     Br  0.73991834  0.65512122  0.65900667    -0.01800
Br2712     Br  0.75532735  0.70077347  0.71400922    -0.01900
Br2713     Br  0.82898235  0.64479340  0.69852058    -0.01900
Br2714     Br  0.83899335  0.68274597  0.76006215    -0.01900
C2715       C  0.80148506  0.77613292  0.87343889    -0.03000
C2716       C  0.79718985  0.78309480  0.84207747     0.06700
C2717       C  0.78267369  0.79601033  0.83911160    -0.03100
C2718       C  0.77534901  0.80469988  0.86710190    -0.03100
C2719       C  0.78152942  0.79973175  0.89879503     0.06800
C2720       C  0.79304367  0.78360754  0.90155126    -0.03300
Br2721     Br  0.79991868  0.77357359  0.94359973    -0.01800
Br2722     Br  0.82071025  0.75774166  0.87790387    -0.01900
Br2723     Br  0.75745412  0.82413728  0.86124755    -0.01900
Br2724     Br  0.77484172  0.80376901  0.79630423    -0.01900
C2725       C  0.68644469  0.12655066  0.76733054    -0.03000
C2726       C  0.65890776  0.11516181  0.76911384     0.06700
C2727       C  0.64696806  0.10887160  0.80014236    -0.03100
C2728       C  0.66225075  0.11499016  0.82871715    -0.03100
C2729       C  0.68987287  0.12946101  0.82693656     0.06800
C2730       C  0.70186311  0.13456601  0.79601544    -0.03300
Br2731     Br  0.73954998  0.15464903  0.79292122    -0.01800
Br2732     Br  0.70326051  0.13356975  0.72548006    -0.01900
Br2733     Br  0.64537556  0.10565514  0.87067422    -0.01900
Br2734     Br  0.60969182  0.09388892  0.80391449    -0.01900
C2735       C  0.51586144  0.71815553  0.80593465    -0.03000
C2736       C  0.51673427  0.72677001  0.83799100     0.06700
C2737       C  0.50589687  0.70777398  0.86312850    -0.03100
C2738       C  0.49661619  0.68078132  0.85675966    -0.03100
C2739       C  0.49878719  0.67256062  0.82530743     0.06800
C2740       C  0.50635708  0.69112602  0.79936660    -0.03300
Br2741     Br  0.50448292  0.68047685  0.75462653    -0.01800
Br2742     Br  0.52882772  0.74374307  0.77109393    -0.01900
Br2743     Br  0.47935487  0.65479123  0.89077075    -0.01900
Br2744     Br  0.50486506  0.71889691  0.90672500    -0.01900
C2745       C  0.55321290  0.76926714  0.96734462    -0.03000
C2746       C  0.57375082  0.77653973  0.94438152     0.06700
C2747       C  0.59143400  0.76713890  0.94883400    -0.03100
C2748       C  0.58864045  0.75125207  0.97615081    -0.03100
C2749       C  0.57161544  0.74532230  0.49936922     0.06800
C2750       C  0.55362854  0.75384724  0.49478576    -0.03300
Br2751     Br  0.52404391  0.74149492  0.52369936    -0.01800
Br2752     Br  0.53208170  0.78598835  0.96872423    -0.01900
Br2753     Br  0.61376984  0.74022128  0.98462742    -0.01900
Br2754     Br  0.61947569  0.77568879  0.91842659    -0.01900
C2755       C  0.56457895  0.80641791  0.72986702    -0.03000
C2756       C  0.58580735  0.81277788  0.75038782     0.06700
C2757       C  0.60760719  0.81113592  0.73949225    -0.03100
C2758       C  0.60735704  0.80156283  0.70833193    -0.03100
C2759       C  0.58442423  0.79153427  0.68967526     0.06800
C2760       C  0.56325089  0.79462706  0.70013197    -0.03300
Br2761     Br  0.53090257  0.78071267  0.67620070    -0.01800
Br2762     Br  0.53551138  0.81031947  0.74441114    -0.01900
Br2763     Br  0.63711336  0.79962063  0.69266468    -0.01900
Br2764     Br  0.63686321  0.81989045  0.76786762    -0.01900
C2765       C  0.54589920  0.00337017  0.59782880    -0.03000
C2766       C  0.55937832  0.98933971  0.59326209     0.06700
C2767       C  0.58333224  0.99842880  0.61060297    -0.03100
C2768       C  0.59207024  0.01913299  0.63378778    -0.03100
C2769       C  0.57684737  0.03090276  0.64116155     0.06800
C2770       C  0.55347513  0.02252004  0.62274662    -0.03300
Br2771     Br  0.53020951  0.03584837  0.63133669    -0.01800
Br2772     Br  0.51734532  0.99763641  0.56936639    -0.01900
Br2773     Br  0.62425298  0.02999036  0.65734063    -0.01900
Br2774     Br  0.60528834  0.98344873  0.60195416    -0.01900
C2775       C  0.57219381  0.86662892  0.96037463    -0.03000
C2776       C  0.56260514  0.86987124  0.93017408     0.06700
C2777       C  0.55148062  0.88630092  0.92890742    -0.03100
C2778       C  0.54753527  0.89679226  0.95782478    -0.03100
C2779       C  0.55320946  0.88982440  0.98834977     0.06800
C2780       C  0.56684964  0.87588343  0.98936437    -0.03300
Br2781     Br  0.57475486  0.86919537  0.52971712    -0.01800
Br2782     Br  0.59280596  0.84953911  0.96198967    -0.01900
Br2783     Br  0.53359867  0.92022430  0.95605446    -0.01900
Br2784     Br  0.53904285  0.89235480  0.88836308    -0.01900
C2785       C  0.50639229  0.78304158  0.58894192    -0.03000
C2786       C  0.53285498  0.79122180  0.59623004     0.06700
C2787       C  0.54970938  0.81771875  0.60623118    -0.03100
C2788       C  0.54033944  0.83538120  0.60828375    -0.03100
C2789       C  0.51582611  0.82882331  0.59459670     0.06800
C2790       C  0.49819447  0.80197183  0.58657901    -0.03300
Br2791     Br  0.46266769  0.79039743  0.57317151    -0.01800
Br2792     Br  0.48135304  0.74610975  0.58201140    -0.01900
Br2793     Br  0.56026604  0.86752863  0.63328443    -0.01900
Br2794     Br  0.58570990  0.83062799  0.61911980    -0.01900
C2795       C  0.84448990  0.88570832  0.71380136    -0.03000
C2796       C  0.83497985  0.89315890  0.74064343     0.06700
C2797       C  0.83728451  0.88512260  0.77197887    -0.03100
C2798       C  0.84594314  0.86701126  0.77616698    -0.03100
C2799       C  0.85057178  0.85554065  0.74877444     0.06800
C2800       C  0.85115333  0.86588543  0.71764355    -0.03300
Br2801     Br  0.85935149  0.85173404  0.68033637    -0.01800
Br2802     Br  0.84600306  0.90085498  0.67157425    -0.01900
Br2803     Br  0.84963484  0.85705988  0.81959326    -0.01900
Br2804     Br  0.82699690  0.89785283  0.80898346    -0.01900
C2805       C  0.77181731  0.84855122  0.65075468    -0.03000
C2806       C  0.75714334  0.86119813  0.65547042     0.06700
C2807       C  0.73959868  0.85917639  0.63144037    -0.03100
C2808       C  0.74205113  0.85146615  0.60005117    -0.03100
C2809       C  0.76148071  0.84458145  0.59315384     0.06800
C2810       C  0.77432248  0.84047084  0.61939837    -0.03300
Br2811     Br  0.79588167  0.82499111  0.61245692    -0.01800
Br2812     Br  0.78525717  0.83937992  0.68794824    -0.01900
Br2813     Br  0.71855895  0.85087137  0.56734098    -0.01900
Br2814     Br  0.71207570  0.86641933  0.64230582    -0.01900
C2815       C  0.77740743  0.92571504  0.86592361    -0.03000
C2816       C  0.76468211  0.90690392  0.84125815     0.06700
C2817       C  0.74458076  0.88080862  0.84986270    -0.03100
C2818       C  0.73993173  0.87307883  0.88258927    -0.03100
C2819       C  0.75621358  0.89056731  0.90633064     0.06800
C2820       C  0.77255566  0.91749270  0.89853848    -0.03300
Br2821     Br  0.78667177  0.94278472  0.93310541    -0.01800
Br2822     Br  0.80252810  0.96208621  0.85535720    -0.01900
Br2823     Br  0.71175750  0.83851337  0.89553498    -0.01900
Br2824     Br  0.72314068  0.85484389  0.81794786    -0.01900
C2825       C  0.65035167  0.88209692  0.78441677    -0.03000
C2826       C  0.65085849  0.87593800  0.81793180     0.06700
C2827       C  0.67557261  0.88578081  0.83234508    -0.03100
C2828       C  0.69847549  0.90038196  0.81341145    -0.03100
C2829       C  0.69731206  0.89862200  0.77899604     0.06800
C2830       C  0.67284343  0.89039318  0.76458868    -0.03300
Br2831     Br  0.67036664  0.89149690  0.71805978    -0.01800
Br2832     Br  0.62174951  0.88455496  0.76605974    -0.01900
Br2833     Br  0.72638162  0.93110537  0.83369549    -0.01900
Br2834     Br  0.67816348  0.88258299  0.87857211    -0.01900
C2835       C  0.81644519  0.13592640  0.97862846    -0.03000
C2836       C  0.80153518  0.10895328  0.98858026     0.06700
C2837       C  0.77563179  0.09368176  0.97618717    -0.03100
C2838       C  0.76547208  0.10444578  0.95334060    -0.03100
C2839       C  0.78015693  0.13135717  0.94359651     0.06800
C2840       C  0.80594240  0.14694156  0.95658473    -0.03300
Br2841     Br  0.82804051  0.18385085  0.94494795    -0.01800
Br2842     Br  0.85217031  0.15855162  0.99340886    -0.01900
Br2843     Br  0.73176232  0.08128900  0.93357932    -0.01900
Br2844     Br  0.75062307  0.05290249  0.48324747    -0.01900
C2845       C  0.77106954  0.96808683  0.62060327    -0.03000
C2846       C  0.77762089  0.97904548  0.65236656     0.06700
C2847       C  0.78848714  0.00678609  0.65537004    -0.03100
C2848       C  0.79518682  0.02308095  0.62738326    -0.03100
C2849       C  0.79200042  0.01223160  0.59618256     0.06800
C2850       C  0.77840098  0.98461652  0.59282414    -0.03300
Br2851     Br  0.77207376  0.96971826  0.54977375    -0.01800
Br2852     Br  0.75328608  0.93043745  0.61412939    -0.01900
Br2853     Br  0.81029341  0.06083576  0.63134182    -0.01900
Br2854     Br  0.79777834  0.02366427  0.69708226    -0.01900
C2855       C  0.84215255  0.95630208  0.97670508    -0.03000
C2856       C  0.82977784  0.93772312  0.00189435     0.06700
C2857       C  0.83129515  0.94923557  0.53144507    -0.03100
C2858       C  0.84028110  0.97631029  0.53612432    -0.03100
C2859       C  0.84574505  0.99136099  0.01195642     0.06800
C2860       C  0.84904829  0.98284744  0.98136444    -0.03300
Br2861     Br  0.86122144  0.00687754  0.94521178    -0.01800
Br2862     Br  0.84792928  0.94503488  0.93515700    -0.01900
Br2863     Br  0.84218360  0.98895523  0.57960045    -0.01900
Br2864     Br  0.81668970  0.92468507  0.56737779    -0.01900
C2865       C  0.14006374  0.68791731  0.99624917    -0.03000
C2866       C  0.12417317  0.66022359  0.99310447     0.06700
C2867       C  0.11375980  0.64993168  0.96214888    -0.03100
C2868       C  0.12217589  0.66643844  0.93415368    -0.03100
C2869       C  0.14114307  0.69376630  0.93673890     0.06800
C2870       C  0.14805727  0.70456853  0.96847734    -0.03300
Br2871     Br  0.16895610  0.74243553  0.97449867    -0.01800
Br2872     Br  0.14895887  0.70323769  0.53648902    -0.01900
Br2873     Br  0.10843282  0.65059064  0.89260289    -0.01900
Br2874     Br  0.08817600  0.61269759  0.95826323    -0.01900
C2875       C  0.98616895  0.84933334  0.75466898    -0.03000
C2876       C  0.99588220  0.83285911  0.76535361     0.06700
C2877       C  0.97812335  0.80785789  0.77916090    -0.03100
C2878       C  0.95096745  0.79807008  0.77769617    -0.03100
C2879       C  0.94112472  0.81370366  0.76453787     0.06800
C2880       C  0.95887899  0.83975036  0.75421459    -0.03300
Br2881     Br  0.94575080  0.86164912  0.73734620    -0.01800
Br2882     Br  0.01024918  0.88557556  0.74216946    -0.01900
Br2883     Br  0.92758844  0.76258487  0.79361450    -0.01900
Br2884     Br  0.98984901  0.78541206  0.79875098    -0.01900
C2885       C  0.12038153  0.78004570  0.75921356    -0.03000
C2886       C  0.10698745  0.79088725  0.77482233     0.06700
C2887       C  0.10444677  0.78798981  0.80924524    -0.03100
C2888       C  0.12068809  0.78125921  0.82754081    -0.03100
C2889       C  0.13511382  0.77150304  0.81182611     0.06800
C2890       C  0.13143813  0.76760268  0.77763414    -0.03300
Br2891     Br  0.13578326  0.74130732  0.75592809    -0.01800
Br2892     Br  0.12186574  0.78063509  0.71245525    -0.01900
Br2893     Br  0.12218864  0.78416329  0.87415078    -0.01900
Br2894     Br  0.07580583  0.78768494  0.83151220    -0.01900
C2895       C  0.86420915  0.83031675  0.47190573    -0.03000
C2896       C  0.85577651  0.83904390  0.49884422     0.06700
C2897       C  0.86188245  0.84077958  0.02619553    -0.03100
C2898       C  0.88184613  0.83442674  0.03017259    -0.03100
C2899       C  0.89251129  0.82200350  0.50713423     0.06800
C2900       C  0.88161722  0.82083135  0.47641201    -0.03300
Br2901     Br  0.88974124  0.80505697  0.44065681    -0.01800
Br2902     Br  0.85172897  0.83033718  0.42859223    -0.01900
Br2903     Br  0.89644964  0.83620014  0.07261314    -0.01900
Br2904     Br  0.85097670  0.85330002  0.06266130    -0.01900
C2905       C  0.00952907  0.78338508  0.60461292    -0.03000
C2906       C  0.98222024  0.77392729  0.60796659     0.06700
C2907       C  0.97218490  0.77088060  0.64002828    -0.03100
C2908       C  0.98910379  0.77926596  0.66734345    -0.03100
C2909       C  0.01655422  0.79156724  0.66344689     0.06800
C2910       C  0.02642779  0.79221928  0.63204593    -0.03300
Br2911     Br  0.06366393  0.80596185  0.62676678    -0.01800
Br2912     Br  0.02498393  0.78685218  0.56255814    -0.01900
Br2913     Br  0.97446948  0.77562767  0.70998961    -0.01900
Br2914     Br  0.93512371  0.75620658  0.64733105    -0.01900
C2915       C  0.85171329  0.76317046  0.60467460    -0.03000
C2916       C  0.86525806  0.74946233  0.60032161     0.06700
C2917       C  0.86589738  0.73375035  0.62508416    -0.03100
C2918       C  0.86048199  0.73786696  0.65682244    -0.03100
C2919       C  0.85065180  0.75552873  0.66309687     0.06800
C2920       C  0.84354829  0.76555667  0.63597520    -0.03300
Br2921     Br  0.82221892  0.78163728  0.64040321    -0.01800
Br2922     Br  0.84232989  0.77605613  0.56693892    -0.01900
Br2923     Br  0.86941587  0.71984813  0.68943905    -0.01900
Br2924     Br  0.87496472  0.70710478  0.61469288    -0.01900
C2925       C  0.88344054  0.74072227  0.87152189    -0.03000
C2926       C  0.89097668  0.76577965  0.85831154     0.06700
C2927       C  0.91428105  0.78837910  0.86958618    -0.03100
C2928       C  0.92782966  0.78614601  0.89624311    -0.03100
C2929       C  0.91812741  0.76176411  0.91190744     0.06800
C2930       C  0.89749008  0.73882908  0.89786934    -0.03300
Br2931     Br  0.88848195  0.70492104  0.91504063    -0.01800
Br2932     Br  0.85270210  0.70924822  0.85576392    -0.01900
Br2933     Br  0.95894227  0.81660317  0.91312064    -0.01900
Br2934     Br  0.92837386  0.82273143  0.84945435    -0.01900
C2935       C  0.71803490  0.49941003  0.89030561    -0.03000
C2936       C  0.73780527  0.52645633  0.89136100     0.06700
C2937       C  0.72981334  0.54565710  0.89043681    -0.03100
C2938       C  0.70314159  0.53814444  0.89322802    -0.03100
C2939       C  0.68364096  0.51118319  0.89627787     0.06800
C2940       C  0.69110698  0.49188367  0.89252515    -0.03300
Br2941     Br  0.66416508  0.45518892  0.88846438    -0.01800
Br2942     Br  0.72748131  0.47250397  0.88676823    -0.01900
Br2943     Br  0.69411007  0.56566771  0.89441462    -0.01900
Br2944     Br  0.75484461  0.58286485  0.88385171    -0.01900
C2945       C  0.78981796  0.59786056  0.79984977    -0.03000
C2946       C  0.79037503  0.57469386  0.80805408     0.06700
C2947       C  0.77298386  0.55065337  0.79159004    -0.03100
C2948       C  0.75908024  0.55110785  0.76432695    -0.03100
C2949       C  0.76085485  0.57477093  0.75458036     0.06800
C2950       C  0.77381437  0.59724238  0.77414445    -0.03300
Br2951     Br  0.76701972  0.62560172  0.76726747    -0.01800
Br2952     Br  0.81213030  0.63091618  0.82156228    -0.01900
Br2953     Br  0.73904074  0.51967166  0.73833206    -0.01900
Br2954     Br  0.76700636  0.51628009  0.80442522    -0.01900
C2955       C  0.78800856  0.54089548  0.51084302    -0.03000
C2956       C  0.81512548  0.55387411  0.50552101     0.06700
C2957       C  0.83235084  0.57007557  0.53005538    -0.03100
C2958       C  0.82211211  0.57327207  0.55961460    -0.03100
C2959       C  0.79479657  0.56345455  0.56259270     0.06800
C2960       C  0.77805253  0.54793255  0.53717123    -0.03300
Br2961     Br  0.74188973  0.53876839  0.53551943    -0.01800
Br2962     Br  0.76332821  0.53605027  0.97793955    -0.01900
Br2963     Br  0.84530873  0.58965752  0.59591596    -0.01900
Br2964     Br  0.86966036  0.58853068  0.52245608    -0.01900
C2965       C  0.86279012  0.65035007  0.96629082    -0.03000
C2966       C  0.87869284  0.64516858  0.94517259     0.06700
C2967       C  0.90630174  0.66092093  0.94883081    -0.03100
C2968       C  0.91756944  0.68315648  0.96996308    -0.03100
C2969       C  0.90138680  0.68810347  0.99079878     0.06800
C2970       C  0.87423359  0.66969896  0.99077445    -0.03300
Br2971     Br  0.85264062  0.67097372  0.02514771    -0.01800
Br2972     Br  0.82536805  0.63380630  0.96094728    -0.01900
Br2973     Br  0.95047935  0.69584616  0.47897556    -0.01900
Br2974     Br  0.92875837  0.65341176  0.92265280    -0.01900
C2975       C  0.01808126  0.56911081  0.66309099    -0.03000
C2976       C  0.99374578  0.55741601  0.64714476     0.06700
C2977       C  0.99405507  0.56026414  0.61275970    -0.03100
C2978       C  0.01707193  0.56718050  0.59478833    -0.03100
C2979       C  0.04133862  0.57804687  0.61067701     0.06800
C2980       C  0.04163732  0.58207813  0.64480960    -0.03300
Br2981     Br  0.07272721  0.60803503  0.66673798    -0.01800
Br2982     Br  0.01909325  0.56955752  0.70989383    -0.01900
Br2983     Br  0.01551619  0.56252819  0.54842231    -0.01900
Br2984     Br  0.96509789  0.55906501  0.58990890    -0.01900
C2985       C  0.90994465  0.54058557  0.79971106    -0.03000
C2986       C  0.90632076  0.54876646  0.76865882     0.06700
C2987       C  0.89718456  0.56688806  0.76733204    -0.03100
C2988       C  0.88825816  0.57343913  0.79594841    -0.03100
C2989       C  0.88888896  0.56252750  0.82647467     0.06800
C2990       C  0.90131995  0.54736884  0.82829506    -0.03300
Br2991     Br  0.90481402  0.53430560  0.86996358    -0.01800
Br2992     Br  0.92646303  0.51957774  0.80300843    -0.01900
Br2993     Br  0.87358336  0.59618818  0.79321645    -0.01900
Br2994     Br  0.89438632  0.58061635  0.72583889    -0.01900
C2995       C  0.79982822  0.50661237  0.64673927    -0.03000
C2996       C  0.79706576  0.52117948  0.67217918     0.06700
C2997       C  0.81154789  0.52554058  0.70092273    -0.03100
C2998       C  0.82717171  0.51404600  0.70489810    -0.03100
C2999       C  0.83293026  0.50314994  0.67803746     0.06800
C3000       C  0.81871520  0.49875258  0.64916588    -0.03300
Br3001     Br  0.82556549  0.48241553  0.61306205    -0.01800
Br3002     Br  0.78005508  0.49976818  0.60711437    -0.01900
Br3003     Br  0.83855801  0.51127703  0.74774080    -0.01900
Br3004     Br  0.81280736  0.54954567  0.73345439    -0.01900
C3005       C  0.18358455  0.52820367  0.56051429    -0.03000
C3006       C  0.18672062  0.52252939  0.59280002     0.06700
C3007       C  0.18471049  0.53740983  0.61828773    -0.03100
C3008       C  0.17711553  0.55618147  0.61148689    -0.03100
C3009       C  0.17122260  0.55976577  0.57942251     0.06800
C3010       C  0.17552504  0.54654868  0.55381754    -0.03300
Br3011     Br  0.16872237  0.55209369  0.50965497    -0.01800
Br3012     Br  0.18949836  0.50996965  0.52565493    -0.01900
Br3013     Br  0.17288838  0.57562005  0.64617165    -0.01900
Br3014     Br  0.18991362  0.53050646  0.66271343    -0.01900
C3015       C  0.14103040  0.61568178  0.82693829    -0.03000
C3016       C  0.15681443  0.60507237  0.83718243     0.06700
C3017       C  0.18272879  0.62271133  0.84771764    -0.03100
C3018       C  0.19195061  0.65022067  0.85026734    -0.03100
C3019       C  0.17588685  0.66062922  0.84058198     0.06800
C3020       C  0.15077778  0.64308078  0.82734164    -0.03300
Br3021     Br  0.12854568  0.65546265  0.80905576    -0.01800
Br3022     Br  0.10573654  0.59326790  0.81049207    -0.01900
Br3023     Br  0.22732850  0.67378313  0.86504663    -0.01900
Br3024     Br  0.20560479  0.60940434  0.85911496    -0.01900
C3025       C  0.12972039  0.59188722  0.69665818    -0.03000
C3026       C  0.10882808  0.57728013  0.67529199     0.06700
C3027       C  0.08620852  0.55383361  0.68615125    -0.03100
C3028       C  0.08526173  0.54436731  0.71780609    -0.03100
C3029       C  0.10778270  0.55694385  0.73735014     0.06800
C3030       C  0.12983036  0.58108723  0.72702370    -0.03300
Br3031     Br  0.16117800  0.59898807  0.75316220    -0.01800
Br3032     Br  0.15909459  0.62570293  0.68353311    -0.01900
Br3033     Br  0.05422252  0.51276183  0.73309529    -0.01900
Br3034     Br  0.05674447  0.53386488  0.65761872    -0.01900
C3035       C  0.08823100  0.50335583  0.95102864    -0.03000
C3036       C  0.10913026  0.51551308  0.92878188     0.06700
C3037       C  0.12813347  0.54202700  0.93274566    -0.03100
C3038       C  0.12318020  0.55792457  0.95305357    -0.03100
C3039       C  0.10334318  0.54614122  0.97721391     0.06800
C3040       C  0.08618952  0.51828123  0.97658365    -0.03300
Br3041     Br  0.06027210  0.50020656  0.00997806    -0.01800
Br3042     Br  0.06328667  0.46620272  0.94641703    -0.01900
Br3043     Br  0.15063336  0.59888129  0.45164086    -0.01900
Br3044     Br  0.16027040  0.55645570  0.90830477    -0.01900
C3045       C  0.12480729  0.44338391  0.74361431    -0.03000
C3046       C  0.11694323  0.46249477  0.74234116     0.06700
C3047       C  0.11383096  0.47128365  0.71148442    -0.03100
C3048       C  0.11964220  0.46223383  0.68270389    -0.03100
C3049       C  0.13028823  0.44552971  0.68417094     0.06800
C3050       C  0.13170508  0.43518781  0.71473267    -0.03300
Br3051     Br  0.14516488  0.41136311  0.71703965    -0.01800
Br3052     Br  0.12925051  0.43095530  0.78524757    -0.01900
Br3053     Br  0.11539497  0.47466206  0.64091853    -0.01900
Br3054     Br  0.10431304  0.49797889  0.70828409    -0.01900
C3055       C  0.15581897  0.35845945  0.54135447    -0.03000
C3056       C  0.13995631  0.36293058  0.56348776     0.06700
C3057       C  0.11243420  0.34807228  0.55884204    -0.03100
C3058       C  0.10094596  0.32823389  0.53447663    -0.03100
C3059       C  0.11679837  0.32239902  0.51406141     0.06800
C3060       C  0.14438939  0.33942051  0.51620880    -0.03300
Br3061     Br  0.16715880  0.33727617  0.48405991    -0.01800
Br3062     Br  0.19348310  0.37648494  0.54560735    -0.01900
Br3063     Br  0.05554980  0.29796187  0.03591914    -0.01900
Br3064     Br  0.09010360  0.35394366  0.58755462    -0.01900
C3065       C  0.97808203  0.17455150  0.52997414    -0.03000
C3066       C  0.99550082  0.16706443  0.51650946     0.06700
C3067       C  0.98529241  0.13978932  0.50944777    -0.03100
C3068       C  0.95816035  0.12106785  0.51339048    -0.03100
C3069       C  0.94065152  0.12916360  0.52393211     0.06800
C3070       C  0.95108322  0.15579308  0.53351594    -0.03300
Br3071     Br  0.92864476  0.16697859  0.55299437    -0.01800
Br3072     Br  0.98988454  0.21073476  0.54257982    -0.01900
Br3073     Br  0.94488141  0.08428328  0.50372922    -0.01900
Br3074     Br  0.00816937  0.12721298  0.49511136    -0.01900
C3075       C  0.85942099  0.05516542  0.77147186    -0.03000
C3076       C  0.88595938  0.06582244  0.76195330     0.06700
C3077       C  0.89360258  0.04842596  0.74910600    -0.03100
C3078       C  0.87444711  0.02155062  0.74252054    -0.03100
C3079       C  0.84762501  0.01130768  0.75067534     0.06800
C3080       C  0.84069846  0.02829002  0.76673517    -0.03300
Br3081     Br  0.80531007  0.01595480  0.78239331    -0.01800
Br3082     Br  0.84789440  0.07689841  0.79257719    -0.01900
Br3083     Br  0.88535970  0.99856627  0.72381430    -0.01900
Br3084     Br  0.93023298  0.06124515  0.74101200    -0.01900
C3085       C  0.85094184  0.10106682  0.89990827    -0.03000
C3086       C  0.86014270  0.08762647  0.91947625     0.06700
C3087       C  0.88221725  0.08645223  0.90950692    -0.03100
C3088       C  0.89396844  0.09715395  0.87945047    -0.03100
C3089       C  0.88709910  0.11373347  0.86188182     0.06800
C3090       C  0.86504497  0.11521525  0.87210775    -0.03300
Br3091     Br  0.85466389  0.13759287  0.84981511    -0.01800
Br3092     Br  0.81935898  0.10074182  0.91190056    -0.01900
Br3093     Br  0.91768462  0.08656215  0.86215265    -0.01900
Br3094     Br  0.89932399  0.07433561  0.93906592    -0.01900
C3095       C  0.91107252  0.16333691  0.64934573    -0.03000
C3096       C  0.92433150  0.15379301  0.66819618     0.06700
C3097       C  0.92275962  0.12991479  0.66017271    -0.03100
C3098       C  0.90601977  0.11422836  0.63514085    -0.03100
C3099       C  0.89039474  0.12255133  0.61774638     0.06800
C3100       C  0.89325842  0.14743112  0.62519160    -0.03300
Br3101     Br  0.87151114  0.15922580  0.60470503    -0.01800
Br3102     Br  0.91825955  0.19872672  0.65674479    -0.01900
Br3103     Br  0.90548144  0.08151898  0.62661236    -0.01900
Br3104     Br  0.94277379  0.11826151  0.68546895    -0.01900
C3105       C  0.99335001  0.20933846  0.91007545    -0.03000
C3106       C  0.02106173  0.22403784  0.90910132     0.06700
C3107       C  0.03351657  0.23547335  0.87920491    -0.03100
C3108       C  0.01872254  0.22907068  0.85011285    -0.03100
C3109       C  0.99127258  0.21184043  0.85083966     0.06800
C3110       C  0.97859169  0.20416756  0.88119453    -0.03300
Br3111     Br  0.94080980  0.18615684  0.88276068    -0.01800
Br3112     Br  0.97549654  0.19325054  0.94999521    -0.01900
Br3113     Br  0.03600274  0.24296655  0.80910196    -0.01900
Br3114     Br  0.07102743  0.25927606  0.87820494    -0.01900
C3115       C  0.83511076  0.45443819  0.95081623    -0.03000
C3116       C  0.84663106  0.44760338  0.92558885     0.06700
C3117       C  0.84588184  0.45580023  0.89366653    -0.03100
C3118       C  0.83694462  0.47359235  0.88767463    -0.03100
C3119       C  0.82999746  0.48424684  0.91387154     0.06800
C3120       C  0.82805674  0.47383466  0.94531792    -0.03300
Br3121     Br  0.81780437  0.48770919  0.98108415    -0.01800
Br3122     Br  0.83058308  0.43846907  0.99317301    -0.01900
Br3123     Br  0.83609951  0.48463049  0.84375526    -0.01900
Br3124     Br  0.85766144  0.44295244  0.85834134    -0.01900
C3125       C  0.93829693  0.47915966  0.53900768    -0.03000
C3126       C  0.91784076  0.47524003  0.51845743     0.06700
C3127       C  0.90330196  0.48764309  0.52530628    -0.03100
C3128       C  0.90490324  0.49852260  0.55626795    -0.03100
C3129       C  0.92127879  0.49686648  0.58020046     0.06800
C3130       C  0.94024368  0.48997780  0.56982523    -0.03300
Br3131     Br  0.96999508  0.49560087  0.59600855    -0.01800
Br3132     Br  0.96350617  0.46944708  0.52473930    -0.01900
Br3133     Br  0.88566812  0.51642631  0.56435592    -0.01900
Br3134     Br  0.89168635  0.49717969  0.98844368    -0.01900
C3135       C  0.94348203  0.45826114  0.82450384    -0.03000
C3136       C  0.92137382  0.43393310  0.83419147     0.06700
C3137       C  0.90104673  0.41947821  0.81235888    -0.03100
C3138       C  0.90084082  0.43098164  0.78262233    -0.03100
C3139       C  0.92269350  0.45583047  0.77308181     0.06800
C3140       C  0.94489090  0.46828191  0.79308212    -0.03300
Br3141     Br  0.97575430  0.50071899  0.77922451    -0.01800
Br3142     Br  0.97030585  0.47997243  0.85501262    -0.01900
Br3143     Br  0.86888052  0.41312965  0.75765500    -0.01900
Br3144     Br  0.87164516  0.38557753  0.82547163    -0.01900
C3145       C  0.84000542  0.31205746  0.90461299    -0.03000
C3146       C  0.83309294  0.32959042  0.91896576     0.06700
C3147       C  0.80672868  0.31933408  0.92927455    -0.03100
C3148       C  0.78814980  0.29186003  0.92692285    -0.03100
C3149       C  0.79608388  0.27411294  0.91620253     0.06800
C3150       C  0.82216486  0.28464522  0.90480573    -0.03300
Br3151     Br  0.83456271  0.26198244  0.88888414    -0.01800
Br3152     Br  0.87437269  0.32443920  0.88549652    -0.01900
Br3153     Br  0.75214119  0.27867501  0.93927898    -0.01900
Br3154     Br  0.79552032  0.34294865  0.94536329    -0.01900
C3155       C  0.99033836  0.42615097  0.88712610    -0.03000
C3156       C  0.98678762  0.44259272  0.90931699     0.06700
C3157       C  0.00602946  0.46962491  0.91003238    -0.03100
C3158       C  0.02563829  0.48093711  0.88582570    -0.03100
C3159       C  0.02953069  0.46472306  0.86352425     0.06800
C3160       C  0.01192763  0.43709932  0.86516641    -0.03300
Br3161     Br  0.01594529  0.41443081  0.83482243    -0.01800
Br3162     Br  0.96558374  0.38863561  0.88546025    -0.01900
Br3163     Br  0.04420464  0.51893381  0.88259784    -0.01900
Br3164     Br  0.00532571  0.49143755  0.94468662    -0.01900
C3165       C  0.72869195  0.22068928  0.70001344    -0.03000
C3166       C  0.73848812  0.22942453  0.66844113     0.06700
C3167       C  0.72071995  0.22128155  0.64215720    -0.03100
C3168       C  0.69392583  0.20233931  0.64697104    -0.03100
C3169       C  0.68460862  0.19213460  0.67823079     0.06800
C3170       C  0.70172380  0.20267938  0.70499798    -0.03300
Br3171     Br  0.68857364  0.19128706  0.74842817    -0.01800
Br3172     Br  0.75256581  0.23155841  0.73614808    -0.01900
Br3173     Br  0.67012378  0.18910711  0.61063794    -0.01900
Br3174     Br  0.73343597  0.23444831  0.59911807    -0.01900
C3175       C  0.86702333  0.20035000  0.69356455    -0.03000
C3176       C  0.87900565  0.22802802  0.68783754     0.06700
C3177       C  0.90261531  0.24480157  0.70517346    -0.03100
C3178       C  0.91259850  0.23423977  0.72873478    -0.03100
C3179       C  0.89928294  0.20683173  0.73618420     0.06800
C3180       C  0.87579936  0.19019092  0.71890903    -0.03300
Br3181     Br  0.85361641  0.15341469  0.73070520    -0.01800
Br3182     Br  0.83816417  0.17536371  0.66670755    -0.01900
Br3183     Br  0.94393335  0.25787685  0.75283008    -0.01900
Br3184     Br  0.92245521  0.28244218  0.69684450    -0.01900
C3185       C  0.90451563  0.36680864  0.55370861    -0.03000
C3186       C  0.89558349  0.35656236  0.52221205     0.06700
C3187       C  0.88268861  0.32872667  0.51814657    -0.03100
C3188       C  0.87649469  0.31174955  0.54536918    -0.03100
C3189       C  0.88180293  0.32201360  0.57711986     0.06800
C3190       C  0.89781658  0.34965503  0.58091399    -0.03300
Br3191     Br  0.90997117  0.36430812  0.62337436    -0.01800
Br3192     Br  0.92570141  0.40446791  0.56000033    -0.01900
Br3193     Br  0.86091580  0.27406527  0.53950805    -0.01900
Br3194     Br  0.87277280  0.31214126  0.97359275    -0.01900
C3195       C  0.77827355  0.22904125  0.54142939    -0.03000
C3196       C  0.78398980  0.21502368  0.56541790     0.06700
C3197       C  0.77275608  0.18727833  0.56202142    -0.03100
C3198       C  0.75742338  0.17441627  0.53437460    -0.03100
C3199       C  0.75178859  0.18865496  0.51138192     0.06800
C3200       C  0.76040960  0.21531280  0.51663629    -0.03300
Br3201     Br  0.74816425  0.23315712  0.48851473    -0.01800
Br3202     Br  0.79611287  0.26740941  0.53923642    -0.01900
Br3203     Br  0.75437502  0.13598327  0.02478458    -0.01900
Br3204     Br  0.77788751  0.16646841  0.59444172    -0.01900
C3205       C  0.80877430  0.21112318  0.80407873    -0.03000
C3206       C  0.79731039  0.22374920  0.82008168     0.06700
C3207       C  0.79994116  0.24749162  0.80738416    -0.03100
C3208       C  0.81295813  0.25770617  0.77778473    -0.03100
C3209       C  0.82128418  0.24308964  0.75976771     0.06800
C3210       C  0.81940901  0.21999200  0.77314742    -0.03300
Br3211     Br  0.82849584  0.19859897  0.74817439    -0.01800
Br3212     Br  0.80774391  0.18030935  0.82308996    -0.01900
Br3213     Br  0.81687365  0.29014332  0.76012963    -0.01900
Br3214     Br  0.78494151  0.26571919  0.82938473    -0.01900
C3215       C  0.83568154  0.36219694  0.66862567    -0.03000
C3216       C  0.85089489  0.35112545  0.67969157     0.06700
C3217       C  0.87649581  0.36839630  0.69174992    -0.03100
C3218       C  0.88755427  0.39602574  0.68942374    -0.03100
C3219       C  0.87269281  0.40709005  0.67708099     0.06800
C3220       C  0.84667829  0.38993755  0.66681926    -0.03300
Br3221     Br  0.82671171  0.40442356  0.64772702    -0.01800
Br3222     Br  0.79897311  0.33960035  0.65790210    -0.01900
Br3223     Br  0.92323759  0.41826875  0.70476039    -0.01900
Br3224     Br  0.89739118  0.35515027  0.71185802    -0.01900
C3225       C  0.13465768  0.18907800  0.53164963    -0.03000
C3226       C  0.12365034  0.18279463  0.99306506     0.06700
C3227       C  0.13862789  0.18143453  0.96730857    -0.03100
C3228       C  0.16018866  0.17801461  0.97367718    -0.03100
C3229       C  0.16503711  0.17267401  0.00555346     0.06800
C3230       C  0.15297238  0.18068346  0.53574635    -0.03300
Br3231     Br  0.17263019  0.18903834  0.57545586    -0.01800
Br3232     Br  0.13224350  0.21105153  0.56408160    -0.01900
Br3233     Br  0.18456595  0.18369867  0.93917709    -0.01900
Br3234     Br  0.13015143  0.18520896  0.92313762    -0.01900
C3235       C  0.03504718  0.19375401  0.72618953    -0.03000
C3236       C  0.01868009  0.17046761  0.74424228     0.06700
C3237       C  0.02907591  0.15436224  0.75421876    -0.03100
C3238       C  0.05605473  0.16318538  0.74926098    -0.03100
C3239       C  0.07307744  0.18898057  0.73721337     0.06800
C3240       C  0.06216496  0.20374987  0.72461269    -0.03300
Br3241     Br  0.08395550  0.23788674  0.70431825    -0.01800
Br3242     Br  0.02063607  0.21186021  0.70171538    -0.01900
Br3243     Br  0.06951843  0.14004481  0.75925322    -0.01900
Br3244     Br  0.00724453  0.12068241  0.77533927    -0.01900
C3245       C  0.13813875  0.26859782  0.63046847    -0.03000
C3246       C  0.12812648  0.24327944  0.64421793     0.06700
C3247       C  0.10479039  0.22164564  0.63150083    -0.03100
C3248       C  0.09244878  0.22527748  0.60442361    -0.03100
C3249       C  0.10445327  0.24976256  0.58831929     0.06800
C3250       C  0.12714107  0.27143984  0.60158516    -0.03300
Br3251     Br  0.14480376  0.30441879  0.57877668    -0.01800
Br3252     Br  0.16779755  0.29913295  0.64984014    -0.01900
Br3253     Br  0.06118048  0.19570496  0.58625241    -0.01900
Br3254     Br  0.08960407  0.18652130  0.64978124    -0.01900
C3255       C  0.15448456  0.25804969  0.88933805    -0.03000
C3256       C  0.12690674  0.24095399  0.89215313     0.06700
C3257       C  0.11345806  0.22167707  0.86776976    -0.03100
C3258       C  0.12754577  0.21800928  0.84330727    -0.03100
C3259       C  0.15439253  0.23570940  0.83945062     0.06800
C3260       C  0.16802957  0.25557428  0.86260374    -0.03300
Br3261     Br  0.20539040  0.27841112  0.85798933    -0.01800
Br3262     Br  0.17414414  0.28482092  0.92135984    -0.01900
Br3263     Br  0.11012591  0.18850319  0.81430025    -0.01900
Br3264     Br  0.07544313  0.20047437  0.86583366    -0.01900
C3265       C  0.22984252  0.23709862  0.63711058    -0.03000
C3266       C  0.22075943  0.22151538  0.66558179     0.06700
C3267       C  0.21991293  0.19717362  0.66587586    -0.03100
C3268       C  0.22151355  0.18552094  0.63690314    -0.03100
C3269       C  0.23006757  0.20052695  0.60746049     0.06800
C3270       C  0.23559445  0.22716366  0.60858914    -0.03300
Br3271     Br  0.24668874  0.24870621  0.56988987    -0.01800
Br3272     Br  0.23311176  0.27144081  0.63711075    -0.01900
Br3273     Br  0.20691667  0.14759395  0.63874382    -0.01900
Br3274     Br  0.21501450  0.17901737  0.70660128    -0.01900
C3275       C  0.19420874  0.46746673  0.87149282    -0.03000
C3276       C  0.22000929  0.48176619  0.85902428     0.06700
C3277       C  0.22894224  0.50713355  0.84563542    -0.03100
C3278       C  0.21095135  0.51606445  0.84014857    -0.03100
C3279       C  0.18463576  0.50067116  0.85124164     0.06800
C3280       C  0.17767706  0.47802365  0.87027082    -0.03300
Br3281     Br  0.14576378  0.46153658  0.89605975    -0.01800
Br3282     Br  0.17979265  0.43243300  0.88880989    -0.01900
Br3283     Br  0.22251225  0.54858337  0.81641669    -0.01900
Br3284     Br  0.26532239  0.52904035  0.83375013    -0.01900
C3285       C  0.19720847  0.32292781  0.79197954    -0.03000
C3286       C  0.21353804  0.31372105  0.77906803     0.06700
C3287       C  0.23896240  0.32409312  0.79276753    -0.03100
C3288       C  0.24757082  0.34254158  0.81856598    -0.03100
C3289       C  0.23179387  0.35254541  0.83037611     0.06800
C3290       C  0.20593493  0.34140369  0.81789496    -0.03300
Br3291     Br  0.18175257  0.35109177  0.83584942    -0.01800
Br3292     Br  0.16310411  0.31212634  0.77370176    -0.01900
Br3293     Br  0.28087229  0.35311231  0.83921473    -0.01900
Br3294     Br  0.26348061  0.31503634  0.77447296    -0.01900
C3295       C  0.19306869  0.41342374  0.96011333    -0.03000
C3296       C  0.21922457  0.43418326  0.95417819     0.06700
C3297       C  0.22946266  0.45754443  0.97347915    -0.03100
C3298       C  0.21520461  0.45841990  0.00016806    -0.03100
C3299       C  0.20027286  0.44149064  0.50723993     0.06800
C3300       C  0.18362840  0.42254848  0.48444716    -0.03300
Br3301     Br  0.14622460  0.40367685  0.49174613    -0.01800
Br3302     Br  0.17719305  0.38109102  0.93531104    -0.01900
Br3303     Br  0.23101107  0.48782544  0.03003528    -0.01900
Br3304     Br  0.26220786  0.48970097  0.96400408    -0.01900
C3305       C  0.25401040  0.45561465  0.75107870    -0.03000
C3306       C  0.25310667  0.43210418  0.75978468     0.06700
C3307       C  0.23984749  0.40969038  0.74001355    -0.03100
C3308       C  0.22538660  0.40987208  0.71291625    -0.03100
C3309       C  0.22525412  0.43323532  0.70453277     0.06800
C3310       C  0.24079584  0.45659509  0.72329219    -0.03300
Br3311     Br  0.24568450  0.49099385  0.71224096    -0.01800
Br3312     Br  0.27195028  0.48611372  0.77900467    -0.01900
Br3313     Br  0.20476134  0.37748234  0.68905558    -0.01900
Br3314     Br  0.24199688  0.37889478  0.75027107    -0.01900
C3315       C  0.36373546  0.53395250  0.85842219    -0.03000
C3316       C  0.34723069  0.51446415  0.83587068     0.06700
C3317       C  0.35525199  0.51732854  0.80307142    -0.03100
C3318       C  0.37992814  0.53862158  0.79358639    -0.03100
C3319       C  0.39813574  0.55464922  0.81720816     0.06800
C3320       C  0.38947667  0.55344855  0.84931328    -0.03300
Br3321     Br  0.41341276  0.57798203  0.88088018    -0.01800
Br3322     Br  0.35218363  0.53261643  0.90248536    -0.01900
Br3323     Br  0.38930080  0.54622021  0.74839935    -0.01900
Br3324     Br  0.33375335  0.49129558  0.77135278    -0.01900
C3325       C  0.45792125  0.62037406  0.55970722    -0.03000
C3326       C  0.45148206  0.60256781  0.58593590     0.06700
C3327       C  0.46223597  0.61212780  0.61672347    -0.03100
C3328       C  0.48134762  0.63888749  0.62054545    -0.03100
C3329       C  0.49128190  0.65558317  0.59308277     0.06800
C3330       C  0.47882826  0.64662499  0.56284217    -0.03300
Br3331     Br  0.49185831  0.66939952  0.52528327    -0.01800
Br3332     Br  0.43964765  0.60826701  0.51891049    -0.01900
Br3333     Br  0.49424409  0.65208709  0.66333871    -0.01900
Br3334     Br  0.45172004  0.58809493  0.65324908    -0.01900
C3335       C  0.32172915  0.43848447  0.00010073    -0.03000
C3336       C  0.34932772  0.45052477  0.00061264     0.06700
C3337       C  0.36242682  0.45168320  0.97141146    -0.03100
C3338       C  0.34894976  0.44598767  0.94138335    -0.03100
C3339       C  0.32185499  0.43695220  0.94069237     0.06800
C3340       C  0.30801690  0.43048944  0.97035243    -0.03300
Br3341     Br  0.27022035  0.41062958  0.97004829    -0.01800
Br3342     Br  0.31956449  0.42631465  0.53003561    -0.01900
Br3343     Br  0.36763690  0.45208786  0.90112790    -0.01900
Br3344     Br  0.39899541  0.46177860  0.97284691    -0.01900
C3345       C  0.47969486  0.56175977  0.97931483    -0.03000
C3346       C  0.45265413  0.54328308  0.98365335     0.06700
C3347       C  0.43573300  0.53695930  0.95684412    -0.03100
C3348       C  0.44591978  0.54471984  0.92593204    -0.03100
C3349       C  0.47200801  0.56628964  0.92140702     0.06800
C3350       C  0.48925968  0.57406355  0.94851485    -0.03300
Br3351     Br  0.52608340  0.59982068  0.94385514    -0.01800
Br3352     Br  0.50043458  0.60587608  0.52039740    -0.01900
Br3353     Br  0.42364798  0.52085701  0.89202495    -0.01900
Br3354     Br  0.39799967  0.52072711  0.96041412    -0.01900
C3355       C  0.41564181  0.50164345  0.70234720    -0.03000
C3356       C  0.43366943  0.50844448  0.67664511     0.06700
C3357       C  0.46050117  0.51755999  0.68381074    -0.03100
C3358       C  0.46959204  0.52415663  0.71569551    -0.03100
C3359       C  0.45248854  0.52300486  0.73957811     0.06800
C3360       C  0.42527940  0.50838578  0.73418497    -0.03300
Br3361     Br  0.40203117  0.49638057  0.77093975    -0.01800
Br3362     Br  0.37858329  0.48607378  0.69410405    -0.01900
Br3363     Br  0.50511105  0.53468593  0.72767048    -0.01900
Br3364     Br  0.48566635  0.52266384  0.65076714    -0.01900
C3365       C  0.28932458  0.46786299  0.62039626    -0.03000
C3366       C  0.28008078  0.48522978  0.61268919     0.06700
C3367       C  0.29777684  0.51035338  0.59955049    -0.03100
C3368       C  0.32381867  0.51698457  0.59142927    -0.03100
C3369       C  0.33240586  0.49853578  0.59683380     0.06800
C3370       C  0.31488454  0.47409346  0.61224365    -0.03300
Br3371     Br  0.32389922  0.44697602  0.62042718    -0.01800
Br3372     Br  0.26683338  0.43468612  0.64237404    -0.01900
Br3373     Br  0.34744468  0.55149908  0.57328167    -0.01900
Br3374     Br  0.28607568  0.53525980  0.59194051    -0.01900
C3375       C  0.61924035  0.48518987  0.69083823    -0.03000
C3376       C  0.60939368  0.45799234  0.68490693     0.06700
C3377       C  0.62744250  0.44908512  0.68099281    -0.03100
C3378       C  0.65478657  0.46759447  0.67859330    -0.03100
C3379       C  0.66434624  0.49510696  0.68223755     0.06800
C3380       C  0.64636296  0.50303996  0.69193906    -0.03300
Br3381     Br  0.65829300  0.53783823  0.71006734    -0.01800
Br3382     Br  0.59610370  0.49892032  0.69918481    -0.01900
Br3383     Br  0.67852722  0.45456858  0.67131482    -0.01900
Br3384     Br  0.61477493  0.41165515  0.67815757    -0.01900
C3385       C  0.42744832  0.43438618  0.62250014    -0.03000
C3386       C  0.44308795  0.45497948  0.60013116     0.06700
C3387       C  0.47001177  0.46370758  0.59859637    -0.03100
C3388       C  0.48214277  0.45653077  0.62280163    -0.03100
C3389       C  0.46684981  0.43582601  0.64524183     0.06800
C3390       C  0.43918549  0.42396492  0.64362573    -0.03300
Br3391     Br  0.41747717  0.39461799  0.67208260    -0.01800
Br3392     Br  0.39018662  0.42076760  0.62547961    -0.01900
Br3393     Br  0.51982263  0.47747125  0.62502880    -0.01900
Br3394     Br  0.49014749  0.48495907  0.56191845    -0.01900
C3395       C  0.55110513  0.48300969  0.82289152    -0.03000
C3396       C  0.57574193  0.48770550  0.83400620     0.06700
C3397       C  0.59145595  0.48198143  0.81432753    -0.03100
C3398       C  0.58067726  0.46721107  0.78631614    -0.03100
C3399       C  0.55590969  0.46218679  0.77514485     0.06800
C3400       C  0.54221339  0.47217460  0.79200709    -0.03300
Br3401     Br  0.51052356  0.46903023  0.77409659    -0.01800
Br3402     Br  0.52832425  0.48848298  0.85104880    -0.01900
Br3403     Br  0.59911875  0.45168945  0.76631795    -0.01900
Br3404     Br  0.62645447  0.49125222  0.82779213    -0.01900
C3405       C  0.55265808  0.42263391  0.58163795    -0.03000
C3406       C  0.52555378  0.41146807  0.58586770     0.06700
C3407       C  0.51073077  0.41525521  0.56193652    -0.03100
C3408       C  0.52320738  0.43039925  0.53390463    -0.03100
C3409       C  0.55100922  0.44426544  0.53169297     0.06800
C3410       C  0.56560703  0.44098448  0.55675645    -0.03300
Br3411     Br  0.60342830  0.46274307  0.55910042    -0.01800
Br3412     Br  0.57214986  0.41350737  0.61134173    -0.01900
Br3413     Br  0.50183903  0.43081764  0.49871156    -0.01900
Br3414     Br  0.47352488  0.40018029  0.56838320    -0.01900
C3415       C  0.46427192  0.34766474  0.83059040    -0.03000
C3416       C  0.45319196  0.31999015  0.82871636     0.06700
C3417       C  0.44515102  0.30774065  0.79804065    -0.03100
C3418       C  0.44994243  0.32306962  0.76952637    -0.03100
C3419       C  0.46419740  0.35087068  0.77103409     0.06800
C3420       C  0.46995906  0.36301795  0.80185604    -0.03300
Br3421     Br  0.48707649  0.40094577  0.80445999    -0.01800
Br3422     Br  0.47446108  0.36481315  0.87224489    -0.01900
Br3423     Br  0.43917694  0.30618581  0.72780016    -0.01900
Br3424     Br  0.42953176  0.27002694  0.79453751    -0.01900
C3425       C  0.53935123  0.35565177  0.94727369    -0.03000
C3426       C  0.52874152  0.34484066  0.91684536     0.06700
C3427       C  0.53804620  0.36109083  0.88883087    -0.03100
C3428       C  0.55455166  0.38865094  0.89194487    -0.03100
C3429       C  0.56361063  0.39971769  0.92274610     0.06800
C3430       C  0.55730242  0.38295150  0.95012889    -0.03300
Br3431     Br  0.57205624  0.39732587  0.99192809    -0.01800
Br3432     Br  0.52859162  0.33300646  0.98501689    -0.01900
Br3433     Br  0.56301557  0.41152885  0.85449612    -0.01900
Br3434     Br  0.52776628  0.34609923  0.84615767    -0.01900
C3435       C  0.35902334  0.24803783  0.95917283    -0.03000
C3436       C  0.36590941  0.23240729  0.93963001     0.06700
C3437       C  0.34917644  0.20450579  0.94095949    -0.03100
C3438       C  0.32858256  0.19262064  0.96403822    -0.03100
C3439       C  0.32175974  0.20821458  0.98354573     0.06800
C3440       C  0.33701900  0.23601218  0.98032207    -0.03300
Br3441     Br  0.32857702  0.25801221  0.00643784    -0.01800
Br3442     Br  0.37864169  0.28633035  0.95692660    -0.01900
Br3443     Br  0.31011064  0.15102033  0.47804965    -0.01900
Br3444     Br  0.35319349  0.18146947  0.91081276    -0.01900
C3445       C  0.50353219  0.28129773  0.70166234    -0.03000
C3446       C  0.50029753  0.27174801  0.66977465     0.06700
C3447       C  0.50773044  0.28951701  0.64338328    -0.03100
C3448       C  0.51434829  0.31582708  0.64855891    -0.03100
C3449       C  0.51496439  0.32472246  0.68029394     0.06800
C3450       C  0.51123863  0.30796844  0.70698083    -0.03300
Br3451     Br  0.51441971  0.32083475  0.75067373    -0.01800
Br3452     Br  0.49564752  0.25733178  0.73773851    -0.01900
Br3453     Br  0.52058719  0.33910383  0.61210903    -0.01900
Br3454     Br  0.50740350  0.27751632  0.59992891    -0.01900
C3455       C  0.45822117  0.23338433  0.54111609    -0.03000
C3456       C  0.43832748  0.22688340  0.56497098     0.06700
C3457       C  0.41958107  0.23481565  0.55932446    -0.03100
C3458       C  0.41995655  0.24729143  0.52967364    -0.03100
C3459       C  0.44036241  0.25426728  0.50720258     0.06800
C3460       C  0.46041168  0.24898023  0.51420585    -0.03300
Br3461     Br  0.38724380  0.19694495  0.99499443    -0.01800
Br3462     Br  0.48109812  0.21870677  0.54121852    -0.01900
Br3463     Br  0.39240529  0.25452836  0.51899071    -0.01900
Br3464     Br  0.39334222  0.22895172  0.59126843    -0.01900
C3465       C  0.45060290  0.19078942  0.77764467    -0.03000
C3466       C  0.42865539  0.18524934  0.75871592     0.06700
C3467       C  0.40888787  0.18947519  0.77136490    -0.03100
C3468       C  0.41089823  0.19884268  0.80297255    -0.03100
C3469       C  0.43460083  0.20817091  0.81966365     0.06800
C3470       C  0.45438166  0.20376867  0.80730826    -0.03300
Br3471     Br  0.48759087  0.21719491  0.82913873    -0.01800
Br3472     Br  0.47710619  0.18387291  0.76102841    -0.01900
Br3473     Br  0.38234357  0.20126688  0.82209647    -0.01900
Br3474     Br  0.38129213  0.18680486  0.74422537    -0.01900
C3475       C  0.53579838  0.18078514  0.67563177    -0.03000
C3476       C  0.50874520  0.16215814  0.68032400     0.06700
C3477       C  0.50120498  0.13588165  0.68902226    -0.03100
C3478       C  0.52001551  0.12787947  0.69041257    -0.03100
C3479       C  0.54705038  0.14621847  0.68415476     0.06800
C3480       C  0.55483559  0.17295783  0.67797029    -0.03300
Br3481     Br  0.59145551  0.19907671  0.67174597    -0.01800
Br3482     Br  0.54725288  0.21753692  0.66702241    -0.01900
Br3483     Br  0.50777732  0.09145693  0.70289884    -0.01900
Br3484     Br  0.46483381  0.10978216  0.69821124    -0.01900
C3485       C  0.64612415  0.16897014  0.89789907    -0.03000
C3486       C  0.66271909  0.17269973  0.92454214     0.06700
C3487       C  0.65297661  0.16981384  0.95634610    -0.03100
C3488       C  0.62677192  0.16315567  0.96142827    -0.03100
C3489       C  0.60960323  0.15707997  0.93484475     0.06800
C3490       C  0.61933193  0.15991284  0.90305089    -0.03300
Br3491     Br  0.59538692  0.14815392  0.86676292    -0.01800
Br3492     Br  0.65938546  0.17420475  0.85413703    -0.01900
Br3493     Br  0.61382880  0.16034141  0.00498545    -0.01900
Br3494     Br  0.67471763  0.17264754  0.99288087    -0.01900
C3495       C  0.56227699  0.11883878  0.55645565    -0.03000
C3496       C  0.55941304  0.10041949  0.53237316     0.06700
C3497       C  0.57349861  0.08687772  0.53564242    -0.03100
C3498       C  0.58994238  0.09179082  0.56281967    -0.03100
C3499       C  0.59346797  0.11111668  0.58558909     0.06800
C3500       C  0.58095443  0.12573767  0.58093815    -0.03300
Br3501     Br  0.58883762  0.15471060  0.60948648    -0.01800
Br3502     Br  0.53911928  0.13319143  0.55836166    -0.01900
Br3503     Br  0.60764482  0.07212551  0.56942799    -0.01900
Br3504     Br  0.56491091  0.05526634  0.00988088    -0.01900
C3505       C  0.53338108  0.06875926  0.82913951    -0.03000
C3506       C  0.52820000  0.08840411  0.84046119     0.06700
C3507       C  0.53140973  0.10876166  0.81953705    -0.03100
C3508       C  0.54318734  0.11155656  0.78919192    -0.03100
C3509       C  0.54888320  0.09214972  0.77802320     0.06800
C3510       C  0.54175932  0.06957176  0.79703707    -0.03300
Br3511     Br  0.54539733  0.04089770  0.78017017    -0.01800
Br3512     Br  0.53163204  0.04215435  0.85800031    -0.01900
Br3513     Br  0.55294039  0.14328701  0.76464602    -0.01900
Br3514     Br  0.52244171  0.13460400  0.83371505    -0.01900
C3515       C  0.44083173  0.10937598  0.56251057    -0.03000
C3516       C  0.45649656  0.13582577  0.57364296     0.06700
C3517       C  0.47902583  0.15289716  0.55515342    -0.03100
C3518       C  0.48227058  0.14626370  0.52389972    -0.03100
C3519       C  0.46916709  0.11968840  0.51390759     0.06800
C3520       C  0.44796750  0.10104150  0.53341157    -0.03300
Br3521     Br  0.42873985  0.06475656  0.51993546    -0.01800
Br3522     Br  0.41109151  0.08447719  0.58776492    -0.01900
Br3523     Br  0.44463862  0.13251661  0.96813998    -0.01900
Br3524     Br  0.50950683  0.18277337  0.57418864    -0.01900
C3525       C  0.47902276  0.16473934  0.89972184    -0.03000
C3526       C  0.50472941  0.17196597  0.90925756     0.06700
C3527       C  0.52293926  0.19898832  0.91540541    -0.03100
C3528       C  0.51453115  0.21771485  0.91620749    -0.03100
C3529       C  0.48767443  0.20932181  0.91218126     0.06800
C3530       C  0.46999233  0.18255159  0.90388189    -0.03300
Br3531     Br  0.43279345  0.16892293  0.89852075    -0.01800
Br3532     Br  0.45560101  0.13060434  0.88044364    -0.01900
Br3533     Br  0.53948299  0.25441505  0.92490868    -0.01900
Br3534     Br  0.55975412  0.21061689  0.92017875    -0.01900
C3535       C  0.23655784  0.72490284  0.57596296    -0.03000
C3536       C  0.22696307  0.74146012  0.58568054     0.06700
C3537       C  0.20101116  0.72997354  0.59757719    -0.03100
C3538       C  0.18570770  0.70258410  0.60223877    -0.03100
C3539       C  0.19397243  0.68568704  0.58923853     0.06800
C3540       C  0.21977918  0.69707842  0.57648559    -0.03300
Br3541     Br  0.23286994  0.67474753  0.56157818    -0.01800
Br3542     Br  0.27209382  0.74049491  0.56008533    -0.01900
Br3543     Br  0.15361101  0.68948200  0.62712364    -0.01900
Br3544     Br  0.18517560  0.75106417  0.60743868    -0.01900
C3545       C  0.21225084  0.79803174  0.70464866    -0.03000
C3546       C  0.22323523  0.78572882  0.68685050     0.06700
C3547       C  0.21996097  0.76123521  0.69759900    -0.03100
C3548       C  0.20736794  0.75019490  0.72732682    -0.03100
C3549       C  0.20000213  0.76465594  0.74730015     0.06800
C3550       C  0.20235459  0.78861668  0.73576904    -0.03300
Br3551     Br  0.19506895  0.81063027  0.76337454    -0.01800
Br3552     Br  0.21208908  0.82863089  0.68727768    -0.01900
Br3553     Br  0.20350245  0.71721981  0.74280697    -0.01900
Br3554     Br  0.23331625  0.74301148  0.67242664    -0.01900
C3555       C  0.26365632  0.81886800  0.94229719    -0.03000
C3556       C  0.23706385  0.80973558  0.93500733     0.06700
C3557       C  0.22266053  0.81634825  0.95594081    -0.03100
C3558       C  0.23319958  0.82747363  0.98644386    -0.03100
C3559       C  0.25796593  0.83117423  0.99674797     0.06800
C3560       C  0.27373239  0.82807849  0.97354936    -0.03300
Br3561     Br  0.30800884  0.83376091  0.98428370    -0.01800
Br3562     Br  0.28711790  0.82226360  0.90808022    -0.01900
Br3563     Br  0.22711447  0.85380252  0.50054577    -0.01900
Br3564     Br  0.18850933  0.81005362  0.94294630    -0.01900
C3565       C  0.37627776  0.86757802  0.56025178    -0.03000
C3566       C  0.35872592  0.84389904  0.57665854     0.06700
C3567       C  0.36855641  0.82783373  0.58879457    -0.03100
C3568       C  0.39593853  0.83705724  0.58786094    -0.03100
C3569       C  0.41379803  0.86259767  0.57555064     0.06800
C3570       C  0.40342491  0.87767014  0.56178413    -0.03300
Br3571     Br  0.42547207  0.91298777  0.54510890    -0.01800
Br3572     Br  0.36347697  0.88613744  0.53347620    -0.01900
Br3573     Br  0.40889511  0.81534110  0.60577559    -0.01900
Br3574     Br  0.34501638  0.79292088  0.60594471    -0.01900
C3575       C  0.50927422  0.86013064  0.80995500    -0.03000
C3576       C  0.50003496  0.83411173  0.82195899     0.06700
C3577       C  0.47266648  0.81717275  0.82684691    -0.03100
C3578       C  0.45509404  0.82659757  0.82158358    -0.03100
C3579       C  0.46489072  0.85334017  0.81314600     0.06800
C3580       C  0.49194969  0.86973416  0.80639417    -0.03300
Br3581     Br  0.50610027  0.90594328  0.79175043    -0.01800
Br3582     Br  0.54594477  0.88436212  0.79954348    -0.01900
Br3583     Br  0.41778846  0.80306669  0.82673439    -0.01900
Br3584     Br  0.45890478  0.78083911  0.84003012    -0.01900
C3585       C  0.47218341  0.98381778  0.87982613    -0.03000
C3586       C  0.44931003  0.97713782  0.86134638     0.06700
C3587       C  0.43517562  0.98999480  0.86936598    -0.03100
C3588       C  0.44473052  0.01042960  0.89303608    -0.03100
C3589       C  0.46807603  0.01757921  0.91084639     0.06800
C3590       C  0.48041694  0.00246358  0.90536567    -0.03300
Br3591     Br  0.50888777  0.00655855  0.93321009    -0.01800
Br3592     Br  0.49308404  0.96769271  0.87141177    -0.01900
Br3593     Br  0.42513961  0.02818542  0.90026259    -0.01900
Br3594     Br  0.40264291  0.98008351  0.84712624    -0.01900
C3595       C  0.47869863  0.88726130  0.67810837    -0.03000
C3596       C  0.49888245  0.91189797  0.66714003     0.06700
C3597       C  0.50557051  0.93469937  0.68544002    -0.03100
C3598       C  0.49074702  0.93337169  0.71299575    -0.03100
C3599       C  0.46891626  0.90892392  0.72258195     0.06800
C3600       C  0.46378319  0.88560719  0.70555605    -0.03300
Br3601     Br  0.43689838  0.85055531  0.71906482    -0.01800
Br3602     Br  0.47058294  0.85572953  0.65412898    -0.01900
Br3603     Br  0.49974836  0.96545110  0.73604515    -0.01900
Br3604     Br  0.53557512  0.96770183  0.67290595    -0.01900
C3605       C  0.43646284  0.91538995  0.93857485    -0.03000
C3606       C  0.42809211  0.89411233  0.91718330     0.06700
C3607       C  0.43621115  0.87568972  0.92209945    -0.03100
C3608       C  0.45372086  0.87903728  0.94726702    -0.03100
C3609       C  0.46292050  0.90103921  0.96891978     0.06800
C3610       C  0.45498857  0.91987361  0.96300871    -0.03300
Br3611     Br  0.47103833  0.95339261  0.98518341    -0.01800
Br3612     Br  0.42199756  0.93822508  0.93389823    -0.01900
Br3613     Br  0.46658559  0.85639479  0.45088996    -0.01900
Br3614     Br  0.42397378  0.84629780  0.89259615    -0.01900
C3615       C  0.33430280  0.88991873  0.73890731    -0.03000
C3616       C  0.36167044  0.89998861  0.73794262     0.06700
C3617       C  0.37416884  0.90569393  0.70737842    -0.03100
C3618       C  0.35927354  0.89711138  0.67853268    -0.03100
C3619       C  0.33163966  0.88405713  0.67971240     0.06800
C3620       C  0.31935678  0.88208730  0.70982295    -0.03300
Br3621     Br  0.28187573  0.86700926  0.71123004    -0.01800
Br3622     Br  0.31717574  0.88508257  0.78018474    -0.01900
Br3623     Br  0.37666123  0.90094545  0.63764363    -0.01900
Br3624     Br  0.41194680  0.92439863  0.70533953    -0.01900
C3625       C  0.31592713  0.81089911  0.79935202    -0.03000
C3626       C  0.33431930  0.81813412  0.82460169     0.06700
C3627       C  0.32661622  0.80441098  0.85439019    -0.03100
C3628       C  0.30005687  0.78500306  0.85962558    -0.03100
C3629       C  0.28097031  0.78191662  0.83662351     0.06800
C3630       C  0.28920496  0.79369314  0.80572963    -0.03300
Br3631     Br  0.26418190  0.78702367  0.77200542    -0.01800
Br3632     Br  0.32701641  0.82533168  0.75627593    -0.01900
Br3633     Br  0.28969494  0.76434359  0.89915039    -0.01900
Br3634     Br  0.35183730  0.81402399  0.88884424    -0.01900
C3635       C  0.06160298  0.85105521  0.99303640    -0.03000
C3636       C  0.07171804  0.87868674  0.99597927     0.06700
C3637       C  0.04884724  0.88034639  0.50571005    -0.03100
C3638       C  0.02173571  0.86152276  0.50890269    -0.03100
C3639       C  0.01648246  0.84221629  0.99873391     0.06800
C3640       C  0.03440301  0.83315855  0.99382965    -0.03300
Br3641     Br  0.02275912  0.79599131  0.98826386    -0.01800
Br3642     Br  0.08440549  0.83663954  0.98536280    -0.01900
Br3643     Br  0.99746298  0.87344882  0.51872472    -0.01900
Br3644     Br  0.06082454  0.91755572  0.50935607    -0.01900
C3645       C  0.19770187  0.87636097  0.55130620    -0.03000
C3646       C  0.21165242  0.89827662  0.52987955     0.06700
C3647       C  0.23926189  0.91326520  0.53253308    -0.03100
C3648       C  0.25282011  0.90606421  0.55497482    -0.03100
C3649       C  0.23902634  0.88298430  0.57481779     0.06800
C3650       C  0.21114069  0.86940920  0.57421550    -0.03300
Br3651     Br  0.19029348  0.84101999  0.60464307    -0.01800
Br3652     Br  0.15996639  0.85428782  0.54963527    -0.01900
Br3653     Br  0.29051273  0.92886411  0.55818765    -0.01900
Br3654     Br  0.26452071  0.94929389  0.00916788    -0.01900
C3655       C  0.09871480  0.87076741  0.89121850    -0.03000
C3656       C  0.12354662  0.87515281  0.90147830     0.06700
C3657       C  0.13754288  0.86708255  0.88179666    -0.03100
C3658       C  0.12889752  0.85893379  0.84987388    -0.03100
C3659       C  0.10453114  0.85561078  0.83944860     0.06800
C3660       C  0.08854570  0.85939661  0.86110126    -0.03300
Br3661     Br  0.05385206  0.85190952  0.84828400    -0.01800
Br3662     Br  0.07910954  0.88260223  0.91605197    -0.01900
Br3663     Br  0.15127565  0.85397792  0.82024905    -0.01900
Br3664     Br  0.16941012  0.86927937  0.89757216    -0.01900
C3665       C  0.12705687  0.91161505  0.59634252    -0.03000
C3666       C  0.15377132  0.92107170  0.59162916     0.06700
C3667       C  0.16774523  0.91509279  0.61455085    -0.03100
C3668       C  0.15470326  0.89925764  0.64196555    -0.03100
C3669       C  0.12701297  0.88704925  0.64446282     0.06800
C3670       C  0.11325631  0.89280686  0.62039571    -0.03300
Br3671     Br  0.07518123  0.87438519  0.61801600    -0.01800
Br3672     Br  0.10887226  0.92278220  0.56733234    -0.01900
Br3673     Br  0.17518915  0.89548376  0.67581150    -0.01900
Br3674     Br  0.20459814  0.92833957  0.60752925    -0.01900
C3675       C  0.15671231  0.01621818  0.52207406    -0.03000
C3676       C  0.16176863  0.00730778  0.49292175     0.06700
C3677       C  0.18188690  0.03273692  0.96725126    -0.03100
C3678       C  0.19354356  0.05983543  0.97337419    -0.03100
C3679       C  0.18306352  0.06190828  0.50278291     0.06800
C3680       C  0.16625288  0.04342683  0.52648891    -0.03300
Br3681     Br  0.15922211  0.05496707  0.56717758    -0.01800
Br3682     Br  0.13826949  0.99144075  0.55658413    -0.01900
Br3683     Br  0.22110217  0.08348646  0.94421842    -0.01900
Br3684     Br  0.18463646  0.02080201  0.92482511    -0.01900
C3685       C  0.19733522  0.14364399  0.79231062    -0.03000
C3686       C  0.18825670  0.12066831  0.77341126     0.06700
C3687       C  0.16795784  0.11413117  0.75084210    -0.03100
C3688       C  0.15826664  0.13159241  0.74560594    -0.03100
C3689       C  0.16783610  0.15480046  0.76459528     0.06800
C3690       C  0.18525593  0.15886386  0.79025848    -0.03300
Br3691     Br  0.19374721  0.18625272  0.82205745    -0.01800
Br3692     Br  0.22945081  0.15792190  0.81641809    -0.01900
Br3693     Br  0.13438506  0.12496071  0.71019283    -0.01900
Br3694     Br  0.15638151  0.08329438  0.72414958    -0.01900
C3695       C  0.32333462  0.13343048  0.71802713    -0.03000
C3696       C  0.31599246  0.10965369  0.73522754     0.06700
C3697       C  0.32921847  0.09592810  0.72709397    -0.03100
C3698       C  0.35002818  0.10633252  0.70383558    -0.03100
C3699       C  0.35694062  0.12994712  0.68611224     0.06800
C3700       C  0.34159984  0.14194582  0.69201826    -0.03300
Br3701     Br  0.34478247  0.17014380  0.66402819    -0.01800
Br3702     Br  0.31054583  0.15638910  0.73111210    -0.01900
Br3703     Br  0.36866876  0.08761374  0.69713296    -0.01900
Br3704     Br  0.31978758  0.06332436  0.74965876    -0.01900
C3705       C  0.26319260  0.16389940  0.89839499    -0.03000
C3706       C  0.24057421  0.15615651  0.91706354     0.06700
C3707       C  0.21694483  0.13359347  0.90846400    -0.03100
C3708       C  0.21645776  0.11734808  0.88322950    -0.03100
C3709       C  0.24031912  0.12285209  0.86766812     0.06800
C3710       C  0.26367872  0.14665521  0.87521635    -0.03300
Br3711     Br  0.29671015  0.15536799  0.85538852    -0.01800
Br3712     Br  0.29307039  0.19866240  0.90446185    -0.01900
Br3713     Br  0.18247832  0.08789061  0.87143674    -0.01900
Br3714     Br  0.18590497  0.12329029  0.93439350    -0.01900
C3715       C  0.24964572  0.12141472  0.66454914    -0.03000
C3716       C  0.24121756  0.09419143  0.67101344     0.06700
C3717       C  0.23627510  0.07721136  0.64417156    -0.03100
C3718       C  0.23639905  0.08651508  0.61239943    -0.03100
C3719       C  0.24448928  0.11331317  0.60716350     0.06800
C3720       C  0.25410724  0.13103644  0.63274952    -0.03300
Br3721     Br  0.27308383  0.16868372  0.62359054    -0.01800
Br3722     Br  0.25173504  0.14615962  0.69697366    -0.01900
Br3723     Br  0.22650673  0.06313466  0.57571690    -0.01900
Br3724     Br  0.23035510  0.04189493  0.64970321    -0.01900
C3725       C  0.21662973  0.98664367  0.84664315    -0.03000
C3726       C  0.23234223  0.01437171  0.84768655     0.06700
C3727       C  0.24312319  0.02648447  0.87782646    -0.03100
C3728       C  0.23568650  0.01134619  0.90697701    -0.03100
C3729       C  0.21661027  0.98412236  0.90629447     0.06800
C3730       C  0.20871005  0.97168139  0.87570540    -0.03300
Br3731     Br  0.18597059  0.93410095  0.87344944    -0.01800
Br3732     Br  0.20380362  0.96951641  0.80531197    -0.01900
Br3733     Br  0.24920251  0.02842002  0.94810073    -0.01900
Br3734     Br  0.26624076  0.06426268  0.87926083    -0.01900
C3735       C  0.14800808  0.98220625  0.72476786    -0.03000
C3736       C  0.15577055  0.99104221  0.75678184     0.06700
C3737       C  0.14318624  0.97335288  0.78292902    -0.03100
C3738       C  0.12522819  0.94641707  0.77692564    -0.03100
C3739       C  0.11873943  0.93724785  0.74488894     0.06800
C3740       C  0.12920615  0.95544400  0.71884658    -0.03300
Br3741     Br  0.11873831  0.94347512  0.67497662    -0.01800
Br3742     Br  0.16374592  0.00673114  0.68911149    -0.01900
Br3743     Br  0.11108620  0.92149163  0.81245882    -0.01900
Br3744     Br  0.15171112  0.98533642  0.82711594    -0.01900
loop_ 
_geom_bond_atom_site_label_1 
_geom_bond_atom_site_label_2 
_geom_bond_distance 
_geom_bond_site_symmetry_2 
_ccdc_geom_bond_type 
O1           C16   1.253       .  A
O1           Al9   1.882       .  S
C2           O12   1.279       .  A
C2            O3   1.257       .  A
C2         C1844   1.508       .  S
O3           Al5   1.883       .  S
O4            C6   1.256       .  A
O4           Al5   1.887       .  S
Al5          O13   1.928       .  S
Al5          O15   1.922       .  S
Al5          O14   1.785       .  S
C6           O19   1.259       .  A
C6         C1814   1.466       .  S
O7           C17   1.254       .  A
O7           Al9   1.895       .  S
O8           C21   1.277       .  A
O8          Al18   1.960       .  S
Al9          O22   1.900       .  S
Al9          O19   1.909       .  S
Al9          O14   1.784       .  S
O10          C17   1.261       .  A
O10         Al18   1.920       .  S
O11          C20   1.259       .  A
O11         Al18   1.916       .  S
O12         Al18   1.956       .  S
O13          C20   1.268       .  A
O14         Al18   1.790       .  S
O15          C16   1.263       .  A
C16        C1837   1.492       .  S
C17        C1864   1.478   1_545  S
C20        C1824   1.521       .  S
C21          O22   1.262       .  A
C21        C1854   1.492       .  S
O23          C38   1.252       .  A
O23         Al31   1.846       .  S
C24          O34   1.279       .  A
C24          O25   1.263       .  A
C24        C1794   1.467       .  S
O25         Al27   1.878   1_554  S
O26        C1900   1.253   1_554  A
O26         Al27   1.876   1_554  S
Al27       O1907   1.921       .  S
Al27       O1909   1.913       .  S
Al27       O1908   1.780       .  S
C28          O41   1.262       .  A
C28        O1898   1.252       .  A
C28        C1764   1.491       .  S
O29        C1911   1.252       .  A
O29         Al31   1.904       .  S
O30          C43   1.280       .  A
O30       Al1912   1.944       .  S
Al31         O44   1.944       .  S
Al31         O41   1.926       .  S
Al31         O36   1.785       .  S
O32          C39   1.256       .  A
O32         Al40   1.920   1_556  S
O33          C42   1.258       .  A
O33         Al40   1.932       .  S
O34         Al40   1.944       .  S
O35        C1914   1.258       .  A
O35       Al1899   1.910       .  S
O36       Al1899   1.779       .  S
O36       Al1912   1.797       .  S
O37          C38   1.260       .  A
O37       Al1899   1.913       .  S
C38        C1784   1.460       .  S
C39        O1901   1.248       .  A
C39        C1804   1.478   1_565  S
Al40       O1902   1.951   1_554  S
Al40       O1908   1.799   1_554  S
C42        O1907   1.260   1_554  A
C42        C1774   1.512       .  S
C43          O44   1.277       .  A
C43        C1857   1.505       .  S
O45          C60   1.252       .  A
O45         Al53   1.859       .  S
C46          O56   1.275       .  A
C46          O47   1.267       .  A
C46        C1734   1.464       .  S
O47         Al49   1.893       .  S
O48          C50   1.253       .  A
O48         Al49   1.878       .  S
Al49         O57   1.928       .  S
Al49         O59   1.931       .  S
Al49         O58   1.781       .  S
C50          O63   1.257       .  A
C50        C1707   1.482       .  S
O51          C61   1.249       .  A
O51         Al53   1.897       .  S
O52          C65   1.277       .  A
O52         Al62   1.940       .  S
Al53         O66   1.923       .  S
Al53         O63   1.912       .  S
Al53         O58   1.784       .  S
O54          C61   1.260       .  A
O54         Al62   1.938       .  S
O55          C64   1.258       .  A
O55         Al62   1.932       .  S
O56         Al62   1.924       .  S
O57          C64   1.262       .  A
O58         Al62   1.801       .  S
O59          C60   1.268       .  A
C60        C1727   1.487       .  S
C61        C1754   1.481       .  S
C64        C1714   1.517       .  S
C65          O66   1.273       .  A
C65        C1744   1.491       .  S
O67          C82   1.257       .  A
O67         Al75   1.875       .  S
C68          O78   1.281       .  A
C68          O69   1.265       .  A
C68        C3559   1.498   1_554  S
O69         Al71   1.886       .  S
O70          C72   1.256       .  A
O70         Al71   1.889       .  S
Al71         O79   1.919       .  S
Al71         O81   1.879       .  S
Al71         O80   1.781       .  S
C72          O85   1.260       .  A
C72        C1664   1.489       .  S
O73          C83   1.256       .  A
O73         Al75   1.926       .  S
O74          C87   1.279       .  A
O74         Al84   1.946       .  S
Al75         O88   1.931       .  S
Al75         O85   1.909       .  S
Al75         O80   1.796       .  S
O76          C83   1.251       .  A
O76         Al84   1.884       .  S
O77          C86   1.247       .  A
O77         Al84   1.902       .  S
O78         Al84   1.946       .  S
O79          C86   1.256       .  A
O80         Al84   1.791       .  S
O81          C82   1.258       .  A
C82        C1674   1.464       .  S
C83        C1694   1.499       .  S
C86        C1777   1.518       .  S
C87          O88   1.272       .  A
C87        C1747   1.494       .  S
O89        C1976   1.259   1_556  A
O89       Al1969   1.872       .  S
C90         O100   1.277       .  A
C90          O91   1.264       .  A
C90        C1634   1.463       .  S
O91         Al93   1.859       .  S
O92          C94   1.259       .  A
O92         Al93   1.915       .  S
Al93        O101   1.882       .  S
Al93        O103   1.926       .  S
Al93        O102   1.788       .  S
C94         O107   1.260       .  A
C94        C1617   1.468       .  S
O95         C105   1.249       .  A
O95         Al97   1.876       .  S
O96         C109   1.281       .  A
O96        Al106   1.998       .  S
Al97        O110   1.871       .  S
Al97        O107   1.912       .  S
Al97       O1961   1.888       .  S
Al97        O102   1.776       .  S
O98         C105   1.255       .  A
O98        Al106   1.907       .  S
O99         C108   1.263       .  A
O99        Al106   1.934       .  S
O100       Al106   1.948       .  S
O101        C108   1.251       .  A
O102       Al106   1.791       .  S
O103        C104   1.272       .  A
C104       O1961   1.262       .  A
C104       C3496   1.480       .  S
C105       C1654   1.489       .  S
C108       C1717   1.523       .  S
C109        O110   1.262       .  A
C109       C3519   1.509       .  S
O111        C126   1.270       .  A
O111       Al119   1.931       .  S
C112        O122   1.265       .  A
C112        O113   1.265       .  A
C112       C1594   1.463       .  S
O113       Al115   1.879       .  S
O114        C116   1.253       .  A
O114       Al115   1.890       .  S
Al115       O123   1.884       .  S
Al115       O125   1.902       .  S
Al115       O124   1.784       .  S
C116        O129   1.258       .  A
C116       C1574   1.478       .  S
O117        C127   1.260       .  A
O117       Al119   1.917       .  S
O118        C131   1.273       .  A
O118       Al128   1.960       .  S
Al119       O132   1.901       .  S
Al119       O129   1.923       .  S
Al119       O124   1.795       .  S
O120        C127   1.255       .  A
O120       Al128   1.890       .  S
O121        C130   1.270       .  A
O121       Al128   1.952       .  S
O122       Al128   1.930       .  S
O123        C130   1.251       .  A
O124       Al128   1.797       .  S
O125        C126   1.269       .  A
C126       C1584   1.474       .  S
C127       C1604   1.504       .  S
C130       C1827   1.529       .  S
C131        O132   1.262       .  A
C131       C1644   1.514       .  S
O133        C148   1.271       .  A
O133       Al141   1.928       .  S
C134        O144   1.264       .  A
C134        O135   1.269       .  A
C134       C3459   1.462       .  S
O135       Al137   1.913       .  S
O136        C138   1.263       .  A
O136       Al137   1.926       .  S
Al137       O145   1.946       .  S
Al137       O147   1.942       .  S
Al137       O146   1.786       .  S
C138        O151   1.256       .  A
C138       C1554   1.472       .  S
O139        C149   1.261       .  A
O139       Al141   1.925       .  S
O140        C153   1.266       .  A
O140       Al150   1.930       .  S
Al141       O154   1.860       .  S
Al141       O151   1.894       .  S
Al141       O146   1.781       .  S
O142        C149   1.256       .  A
O142       Al150   1.894       .  S
O143        C152   1.265       .  A
O143       Al150   1.928       .  S
O144       Al150   1.906       .  S
O145        C152   1.264       .  A
O146       Al150   1.774       .  S
O147        C148   1.277       .  A
C148       C1544   1.492       .  S
C149       C1657   1.497       .  S
C152       C1564   1.530       .  S
C153        O154   1.254       .  A
C153       C1597   1.474       .  S
O155        C170   1.273       .  A
O155       Al163   1.932       .  S
C156        O166   1.263       .  A
C156        O157   1.271       .  A
C156       C1534   1.459       .  S
O157       Al159   1.918       .  S
O158        C160   1.256       .  A
O158       Al159   1.914       .  S
Al159       O167   1.939       .  S
Al159       O169   1.940       .  S
Al159       O168   1.802       .  S
C160        O173   1.251       .  A
C160       C1577   1.474       .  S
O161        C171   1.260       .  A
O161       Al163   1.919       .  S
O162        C175   1.263       .  A
O162       Al172   1.917       .  S
Al163       O176   1.855       .  S
Al163       O173   1.900       .  S
Al163       O168   1.790       .  S
O164        C171   1.250       .  A
O164       Al172   1.867       .  S
O165        C174   1.259       .  A
O165       Al172   1.917       .  S
O166       Al172   1.881       .  S
O167        C174   1.259       .  A
O168       Al172   1.783       .  S
O169        C170   1.279       .  A
C170       C1547   1.495       .  S
C171       C1504   1.488       .  S
C174       C1517   1.511       .  S
C175        O176   1.253       .  A
C175       C1527   1.465       .  S
O177        C192   1.260       .  A
O177       Al185   1.883       .  S
C178        O188   1.264       .  A
C178        O179   1.269       .  A
C178       C1484   1.478       .  S
O179       Al181   1.928       .  S
O180        C182   1.257       .  A
O180       Al181   1.917       .  S
Al181       O189   1.924       .  S
Al181       O191   1.967       .  S
Al181       O190   1.794       .  S
C182        O195   1.250       .  A
C182       C1497   1.494       .  S
O183        C193   1.266       .  A
O183       Al185   1.918       .  S
O184        C197   1.270       .  A
O184       Al194   1.939       .  S
Al185       O198   1.878       .  S
Al185       O195   1.886       .  S
Al185       O190   1.789       .  S
O186        C193   1.263       .  A
O186       Al194   1.913       .  S
O187        C196   1.259       .  A
O187       Al194   1.900       .  S
O188       Al194   1.884       .  S
O189        C196   1.260       .  A
O190       Al194   1.786       .  S
O191        C192   1.274       .  A
C192       C3336   1.494       .  S
C193       C1454   1.474       .  S
C196       C1514   1.510       .  S
C197        O198   1.254       .  A
C197       C3346   1.481   1_554  S
O199        C214   1.277       .  A
O199       Al207   1.937       .  S
C200        O210   1.275       .  A
C200        O201   1.278       .  A
C200       C1434   1.473       .  S
O201       Al203   1.912       .  S
O202        C204   1.253       .  A
O202       Al203   1.919       .  S
Al203       O211   1.908       .  S
Al203       O213   1.939       .  S
Al203       O212   1.795       .  S
C204        O217   1.246       .  A
C204       C1444   1.482       .  S
O205        C215   1.259       .  A
O205       Al207   1.898       .  S
O206        C219   1.263       .  A
O206       Al216   1.931       .  S
Al207       O220   1.835       .  S
Al207       O217   1.891       .  S
Al207       O212   1.776       .  S
O208        C215   1.259       .  A
O208       Al216   1.902       .  S
O209        C218   1.255       .  A
O209       Al216   1.918       .  S
O210       Al216   1.925       .  S
O211        C218   1.251       .  A
O212       Al216   1.790       .  S
O213        C214   1.280       .  A
C214       C1467   1.491       .  S
C215       C1404   1.481       .  S
C218       C1417   1.509       .  S
C219        O220   1.248       .  A
C219       C1424   1.489       .  S
O221        C236   1.274       .  A
O221       Al229   1.935       .  S
C222        O232   1.266       .  A
C222        O223   1.274       .  A
C222       C1387   1.463       .  S
O223       Al225   1.923       .  S
O224        C226   1.253       .  A
O224       Al225   1.883       .  S
Al225       O233   1.892       .  S
Al225       O235   1.935       .  S
Al225       O234   1.792       .  S
C226        O239   1.254       .  A
C226       C1817   1.477       .  S
O227        C237   1.260       .  A
O227       Al229   1.920       .  S
O228        C241   1.262       .  A
O228       Al238   1.897       .  S
Al229       O242   1.866       .  S
Al229       O239   1.914       .  S
Al229       O234   1.791       .  S
O230        C237   1.254       .  A
O230       Al238   1.883       .  S
O231        C240   1.259       .  A
O231       Al238   1.924       .  S
O232       Al238   1.893       .  S
O233        C240   1.249       .  A
O234       Al238   1.778       .  S
O235        C236   1.277       .  A
C236       C1394   1.489       .  S
C237       C1367   1.493       .  S
C240       C1414   1.504       .  S
C241        O242   1.256       .  A
C241       C1374   1.465       .  S
O243        C258   1.270       .  A
O243       Al251   1.913       .  S
C244        O254   1.270       .  A
C244        O245   1.282       .  A
C244       C1834   1.463       .  S
O245       Al247   1.935       .  S
O246        C248   1.257       .  A
O246       Al247   1.937       .  S
Al247      O2127   1.950       .  S
Al247      O2129   1.975       .  S
Al247      O2128   1.792       .  S
C248       O2133   1.251       .  A
C248       C1357   1.499       .  S
O249        C259   1.255       .  A
O249       Al251   1.904       .  S
O250        C263   1.253       .  A
O250       Al260   1.878       .  S
Al251       O264   1.910       .  S
Al251       O261   1.906       .  S
Al251       O256   1.794       .  S
O252        C259   1.253       .  A
O252       Al260   1.880       .  S
O253        C262   1.252       .  A
O253       Al260   1.903       .  S
O254      Al2132   1.887       .  S
O255        C262   1.257   1_556  A
O255      Al2119   1.927   1_556  S
O256       Al260   1.795       .  S
O256      Al2119   1.808       .  S
O257        C258   1.283       .  A
O257      Al2119   1.955       .  S
C258       C1397   1.498       .  S
C259       C1807   1.495       .  S
Al260      O2126   1.883   1_554  S
O261       C2120   1.253       .  A
C262       C3439   1.511   1_554  S
C263        O264   1.262       .  A
C263       C1847   1.472       .  S
O265        C280   1.256       .  A
O265       Al273   1.875       .  S
C266        O276   1.271       .  A
C266        O267   1.261       .  A
C266       C1337   1.463       .  S
O267       Al269   1.863       .  S
O268        C270   1.262       .  A
O268       Al269   1.915       .  S
Al269       O277   1.893       .  S
Al269       O279   1.934       .  S
Al269       O278   1.782       .  S
C270        O283   1.268       .  A
C270       C1294   1.476       .  S
O271        C281   1.249       .  A
O271       Al273   1.885       .  S
O272        C285   1.279       .  A
O272       Al282   1.975       .  S
Al273       O286   1.887       .  S
Al273       O283   1.927       .  S
Al273       O278   1.783       .  S
O274        C281   1.254       .  A
O274       Al282   1.906       .  S
O275        C284   1.263       .  A
O275       Al282   1.932       .  S
O276       Al282   1.936       .  S
O277        C284   1.255       .  A
O278       Al282   1.781       .  S
O279        C280   1.271       .  A
C280       C1324   1.489       .  S
C281       C1344   1.498       .  S
C284       C1304   1.520       .  S
C285        O286   1.264       .  A
C285       C1317   1.501       .  S
O287       C2174   1.265       .  A
O287      Al2167   1.927       .  S
C288        O298   1.265       .  A
C288        O289   1.253       .  A
C288       C1264   1.461       .  S
O289       Al291   1.853       .  S
O290        C292   1.266       .  A
O290       Al291   1.921       .  S
Al291       O299   1.924       .  S
Al291       O301   1.878       .  S
Al291       O300   1.771       .  S
C292        O305   1.260       .  A
C292       C1244   1.472       .  S
O293        C303   1.263       .  A
O293       Al295   1.934       .  S
O294        C307   1.274       .  A
O294       Al304   1.965       .  S
Al295       O308   1.905       .  S
Al295       O305   1.902       .  S
Al295      O2159   1.932       .  S
Al295       O300   1.789       .  S
O296        C303   1.253       .  A
O296       Al304   1.882       .  S
O297        C306   1.264       .  A
O297       Al304   1.915       .  S
O298       Al304   1.945       .  S
O299        C306   1.267       .  A
O300       Al304   1.776       .  S
O301        C302   1.260       .  A
C302       O2159   1.267       .  A
C302       C3126   1.468       .  S
C303       C1274   1.488       .  S
C306       C1284   1.504       .  S
C307        O308   1.265       .  A
C307       C3186   1.507       .  S
O309        C324   1.257       .  A
O309       Al317   1.870       .  S
C310        O320   1.271       .  A
C310        O311   1.269       .  A
C310       C1224   1.459       .  S
O311       Al313   1.908       .  S
O312        C314   1.252       .  A
O312       Al313   1.885       .  S
Al313       O321   1.922       .  S
Al313       O323   1.923       .  S
Al313       O322   1.778       .  S
C314        O327   1.260       .  A
C314       C1204   1.492       .  S
O315        C325   1.261       .  A
O315       Al317   1.931       .  S
O316        C329   1.279       .  A
O316       Al326   1.945       .  S
Al317       O330   1.937       .  S
Al317       O327   1.934       .  S
Al317       O322   1.784       .  S
O318        C325   1.259       .  A
O318       Al326   1.907       .  S
O319        C328   1.255       .  A
O319       Al326   1.918       .  S
O320       Al326   1.905       .  S
O321        C328   1.259       .  A
O322       Al326   1.785       .  S
O323        C324   1.268       .  A
C324       C1217   1.492       .  S
C325       C1364   1.500   1_655  S
C328       C1307   1.517       .  S
C329        O330   1.272       .  A
C329       C1237   1.495       .  S
O331        C346   1.256       .  A
O331       Al339   1.885       .  S
C332        O342   1.274       .  A
C332        O333   1.263       .  A
C332       C1377   1.459       .  S
O333       Al335   1.861   1_554  S
O334       C2208   1.259       .  A
O334       Al335   1.908       .  S
Al335      O2215   1.898       .  S
Al335      O2217   1.926       .  S
Al335      O2216   1.783       .  S
C336        O349   1.271       .  A
C336       O2206   1.264       .  A
C336       C1354   1.488       .  S
O337       C2219   1.250       .  A
O337       Al339   1.899       .  S
O338        C351   1.280       .  A
O338      Al2220   1.974       .  S
Al339       O352   1.891       .  S
Al339       O349   1.935       .  S
Al339       O344   1.790       .  S
O340        C347   1.249       .  A
O340       Al348   1.882       .  S
O341        C350   1.255   1_556  A
O341       Al348   1.920   1_556  S
O342       Al348   1.940       .  S
O343       C2222   1.257       .  A
O343      Al2207   1.904       .  S
O344      Al2207   1.790       .  S
O344      Al2220   1.788       .  S
O345        C346   1.271       .  A
O345      Al2207   1.938       .  S
C346       C1384   1.492       .  S
C347       O2209   1.255   1_554  A
C347       C1194   1.497   1_455  S
Al348      O2210   1.968   1_554  S
Al348      O2216   1.780   1_554  S
C350       O2215   1.254   1_554  A
C350       C1187   1.519       .  S
C351        O352   1.266       .  A
C351       C1234   1.499       .  S
O353        C368   1.254       .  A
O353       Al361   1.862       .  S
C354        O364   1.276       .  A
C354        O355   1.267       .  A
C354       C1164   1.461       .  S
O355       Al357   1.892       .  S
O356        C358   1.251       .  A
O356       Al357   1.867       .  S
Al357       O365   1.907       .  S
Al357       O367   1.909       .  S
Al357       O366   1.778       .  S
C358        O371   1.262       .  A
C358       C1144   1.497       .  S
O359        C369   1.253       .  A
O359       Al361   1.909       .  S
O360        C373   1.283       .  A
O360       Al370   1.948       .  S
Al361       O374   1.932       .  S
Al361       O371   1.936       .  S
Al361       O366   1.790       .  S
O362        C369   1.252       .  A
O362       Al370   1.902       .  S
O363        C372   1.254       .  A
O363       Al370   1.922       .  S
O364       Al370   1.924       .  S
O365        C372   1.254       .  A
O366       Al370   1.800       .  S
O367        C368   1.263       .  A
C368       C1157   1.470       .  S
C369       C1407   1.474       .  S
C372       C1287   1.506       .  S
C373        O374   1.275       .  A
C373       C1174   1.497       .  S
O375        C390   1.254       .  A
O375       Al383   1.869       .  S
C376        O386   1.272       .  A
C376        O377   1.264       .  A
C376       C1427   1.461       .  S
O377       Al379   1.897       .  S
O378        C380   1.251       .  A
O378       Al379   1.875       .  S
Al379       O387   1.918       .  S
Al379       O389   1.913       .  S
Al379       O388   1.772       .  S
C380        O393   1.265       .  A
C380       C1494   1.497       .  S
O381        C391   1.258       .  A
O381       Al383   1.909       .  S
O382        C395   1.279       .  A
O382       Al392   1.943       .  S
Al383       O396   1.931       .  S
Al383       O393   1.946       .  S
Al383       O388   1.783       .  S
O384        C391   1.260       .  A
O384       Al392   1.921       .  S
O385        C394   1.260       .  A
O385       Al392   1.940       .  S
O386       Al392   1.919       .  S
O387        C394   1.260       .  A
O388       Al392   1.792       .  S
O389        C390   1.264       .  A
C390       C1437   1.480       .  S
C391       C1134   1.480       .  S
C394       C1184   1.514       .  S
C395        O396   1.273       .  A
C395       C1177   1.491       .  S
O397        C412   1.275       .  A
O397       Al405   1.925       .  S
C398        O408   1.260       .  A
C398        O399   1.285       .  A
C398       C1257   1.494       .  S
O399       Al401   1.948       .  S
O400        C402   1.250       .  A
O400       Al401   1.904       .  S
Al401       O409   1.900       .  S
Al401       O411   1.951       .  S
Al401       O410   1.796       .  S
C402        O415   1.245       .  A
C402       C1127   1.477       .  S
O403        C413   1.264       .  A
O403       Al405   1.922       .  S
O404        C417   1.265       .  A
O404       Al414   1.906       .  S
Al405       O418   1.841       .  S
Al405       O415   1.891       .  S
Al405       O410   1.793       .  S
O406        C413   1.254       .  A
O406       Al414   1.879       .  S
O407        C416   1.264       .  A
O407       Al414   1.944       .  S
O408       Al414   1.855       .  S
O409        C416   1.247       .  A
O410       Al414   1.785       .  S
O411        C412   1.283       .  A
C412       C1114   1.497       .  S
C413       C1347   1.494       .  S
C416       C1104   1.516       .  S
C417        O418   1.246       .  A
C417       C1267   1.474       .  S
O419        C434   1.273       .  A
O419       Al427   1.934       .  S
C420        O430   1.265       .  A
C420        O421   1.272       .  A
C420       C2956   1.467       .  S
O421       Al423   1.925       .  S
O422        C424   1.259       .  A
O422       Al423   1.916       .  S
Al423       O431   1.942       .  S
Al423       O433   1.945       .  S
Al423       O432   1.800       .  S
C424        O437   1.252       .  A
C424       C1247   1.466       .  S
O425        C435   1.261       .  A
O425       Al427   1.925       .  S
O426        C439   1.263       .  A
O426       Al436   1.914       .  S
Al427       O440   1.859       .  S
Al427       O437   1.893       .  S
Al427       O432   1.787       .  S
O428        C435   1.250       .  A
O428       Al436   1.870       .  S
O429        C438   1.258       .  A
O429       Al436   1.909       .  S
O430       Al436   1.897       .  S
O431        C438   1.260       .  A
O432       Al436   1.774       .  S
O433        C434   1.279       .  A
C434       C1117   1.497       .  S
C435       C1064   1.490       .  S
C438       C1094   1.512       .  S
C439        O440   1.253       .  A
C439       C1074   1.468       .  S
O441        C456   1.255       .  A
O441       Al449   1.867       .  S
C442        O452   1.254       .  A
C442        O443   1.272       .  A
C442       C1057   1.463       .  S
O443       Al445   1.962       .  S
O444        C446   1.254       .  A
O444       Al445   1.888       .  S
Al445      O2325   1.925       .  S
Al445      O2327   1.985       .  S
Al445      O2326   1.784       .  S
C446       O2331   1.262       .  A
C446       C1767   1.494   1_655  S
O447        C457   1.266       .  A
O447       Al449   1.924       .  S
O448        C461   1.267       .  A
O448       Al458   1.906       .  S
Al449       O462   1.908       .  S
Al449       O459   1.930       .  S
Al449       O454   1.781       .  S
O450        C457   1.262       .  A
O450       Al458   1.919       .  S
O451        C460   1.259       .  A
O451       Al458   1.906       .  S
O452      Al2330   1.842       .  S
O453        C460   1.264       .  A
O453      Al2317   1.930       .  S
O454       Al458   1.782       .  S
O454      Al2317   1.786       .  S
O455        C456   1.278       .  A
O455      Al2317   1.996       .  S
C456       C1034   1.529       .  S
C457       C1027   1.481       .  S
Al458      O2324   1.856   1_554  S
O459       C2318   1.260       .  A
C460       C2969   1.508   1_554  S
C461        O462   1.264       .  A
C461       C1044   1.461       .  S
O463        C478   1.261       .  A
O463       Al471   1.882       .  S
C464        O474   1.259       .  A
C464        O465   1.272       .  A
C464       C1787   1.458       .  S
O465       Al467   1.912       .  S
O466        C468   1.247       .  A
O466       Al467   1.879       .  S
Al467       O475   1.918       .  S
Al467       O477   1.978       .  S
Al467       O476   1.780       .  S
C468        O481   1.249       .  A
C468       C1004   1.500       .  S
O469        C479   1.260       .  A
O469       Al471   1.906       .  S
O470        C483   1.276       .  A
O470       Al480   1.940       .  S
Al471       O484   1.875       .  S
Al471       O481   1.896       .  S
Al471       O476   1.785       .  S
O472        C479   1.263       .  A
O472       Al480   1.930       .  S
O473        C482   1.263       .  A
O473       Al480   1.945       .  S
O474       Al480   1.860       .  S
O475        C482   1.260       .  A
O476       Al480   1.800       .  S
O477        C478   1.280       .  A
C478       C1037   1.496       .  S
C479       C1867   1.471       .  S
C482       C1014   1.520       .  S
C483        O484   1.261       .  A
C483       C1797   1.486       .  S
O485        C500   1.266       .  A
O485       Al493   1.885       .  S
C486        O496   1.254       .  A
C486        O487   1.267       .  A
C486       C1154   1.461       .  S
O487       Al489   1.912       .  S
O488        C490   1.246       .  A
O488       Al489   1.894       .  S
Al489       O497   1.909       .  S
Al489       O499   1.991       .  S
Al489       O498   1.769       .  S
C490        O503   1.252       .  A
C490       C1667   1.498       .  S
O491        C501   1.271       .  A
O491       Al493   1.925       .  S
O492        C505   1.271       .  A
O492       Al502   1.940       .  S
Al493       O506   1.875       .  S
Al493       O503   1.917       .  S
Al493       O498   1.787       .  S
O494        C501   1.272       .  A
O494       Al502   1.940       .  S
O495        C504   1.268       .  A
O495       Al502   1.953       .  S
O496       Al502   1.856       .  S
O497        C504   1.260       .  A
O498       Al502   1.791       .  S
O499        C500   1.284       .  A
C500       C2866   1.504   1_554  S
C501       C1137   1.482       .  S
C504       C1107   1.516       .  S
C505        O506   1.257       .  A
C505       C3039   1.489   1_554  S
O507        C522   1.268       .  A
O507       Al515   1.883       .  S
C508        O518   1.248       .  A
C508        O509   1.264       .  A
C508       C1677   1.459       .  S
O509       Al511   1.919       .  S
O510        C512   1.245       .  A
O510       Al511   1.887       .  S
Al511       O519   1.909       .  S
Al511       O521   1.999       .  S
Al511       O520   1.770       .  S
C512        O525   1.255       .  A
C512       C1147   1.493       .  S
O513        C523   1.268       .  A
O513       Al515   1.912       .  S
O514        C527   1.267       .  A
O514       Al524   1.915       .  S
Al515       O528   1.918       .  S
Al515       O525   1.936       .  S
Al515       O520   1.797       .  S
O516        C523   1.275       .  A
O516       Al524   1.945       .  S
O517        C526   1.272       .  A
O517       Al524   1.964       .  S
O518       Al524   1.829       .  S
O519        C526   1.261       .  A
O520       Al524   1.783       .  S
O521        C522   1.285       .  A
C522        C997   1.510       .  S
C523       C1757   1.487       .  S
C526       C1017   1.522       .  S
C527        O528   1.261       .  A
C527       C1684   1.495       .  S
O529        C544   1.267       .  A
O529       Al537   1.912       .  S
C530        O540   1.267       .  A
C530        O531   1.275       .  A
C530       C1214   1.467       .  S
O531       Al533   1.912       .  S
O532        C534   1.261       .  A
O532       Al533   1.937       .  S
Al533      O2413   1.933       .  S
Al533      O2415   1.935       .  S
Al533      O2414   1.792       .  S
C534       O2419   1.258       .  A
C534        C987   1.492   1_545  S
O535        C545   1.264       .  A
O535       Al537   1.937       .  S
O536        C549   1.262       .  A
O536       Al546   1.920       .  S
Al537       O550   1.870       .  S
Al537       O547   1.907       .  S
Al537       O542   1.778       .  S
O538        C545   1.257       .  A
O538       Al546   1.888       .  S
O539        C548   1.265       .  A
O539       Al546   1.928       .  S
O540      Al2418   1.916       .  S
O541        C548   1.264   1_556  A
O541      Al2405   1.940   1_556  S
O542       Al546   1.779       .  S
O542      Al2405   1.785       .  S
O543        C544   1.278       .  A
O543      Al2405   1.951       .  S
C544        C977   1.493       .  S
C545       C1197   1.490       .  S
Al546      O2412   1.901   1_554  S
O547       C2406   1.257       .  A
C548       C2836   1.520   1_554  S
C549        O550   1.252       .  A
C549       C1227   1.485       .  S
O551        C566   1.262       .  A
O551       Al559   1.879       .  S
C552        O562   1.253       .  A
C552        O553   1.271       .  A
C552        C944   1.475       .  S
O553       Al555   1.940       .  S
O554        C556   1.250       .  A
O554       Al555   1.882       .  S
Al555       O563   1.917       .  S
Al555       O565   2.000       .  S
Al555       O564   1.768       .  S
C556        O569   1.264       .  A
C556       C1207   1.501   1_565  S
O557        C567   1.260       .  A
O557       Al559   1.896       .  S
O558        C571   1.262       .  A
O558       Al568   1.892       .  S
Al559       O572   1.946       .  S
Al559       O569   1.953       .  S
Al559       O564   1.786       .  S
O560        C567   1.268       .  A
O560       Al568   1.931       .  S
O561        C570   1.266       .  A
O561       Al568   1.946       .  S
O562       Al568   1.859       .  S
O563        C570   1.265       .  A
O564       Al568   1.780       .  S
O565        C566   1.282       .  A
C566        C974   1.514       .  S
C567        C924   1.468       .  S
C570        C957   1.502       .  S
C571        O572   1.271       .  A
C571        C934   1.474       .  S
O573        C588   1.276       .  A
O573       Al581   1.936       .  S
C574        O584   1.275       .  A
C574        O575   1.281       .  A
C574       C1724   1.479       .  S
O575       Al577   1.921       .  S
O576        C578   1.256       .  A
O576       Al577   1.914       .  S
Al577       O585   1.923       .  S
Al577       O587   1.947       .  S
Al577       O586   1.784       .  S
C578        O591   1.251       .  A
C578        C917   1.498       .  S
O579        C589   1.259       .  A
O579       Al581   1.909       .  S
O580        C593   1.268       .  A
O580       Al590   1.934       .  S
Al581       O594   1.845       .  S
Al581       O591   1.913       .  S
Al581       O586   1.783       .  S
O582        C589   1.255       .  A
O582       Al590   1.884       .  S
O583        C592   1.259       .  A
O583       Al590   1.932       .  S
O584       Al590   1.924       .  S
O585        C592   1.253       .  A
O586       Al590   1.779       .  S
O587        C588   1.283       .  A
C588       C2779   1.492   1_554  S
C589       C1697   1.489       .  S
C592        C894   1.528       .  S
C593        O594   1.248       .  A
C593       C3609   1.503   1_554  S
O595        C610   1.265       .  A
O595       Al603   1.892       .  S
C596        O606   1.257       .  A
C596        O597   1.267       .  A
C596        C884   1.454       .  S
O597       Al599   1.912       .  S
O598        C600   1.244       .  A
O598       Al599   1.876       .  S
Al599       O607   1.894       .  S
Al599       O609   1.982       .  S
Al599       O608   1.770       .  S
C600        O613   1.251       .  A
C600       C1704   1.492       .  S
O601        C611   1.269       .  A
O601       Al603   1.923       .  S
O602        C615   1.270       .  A
O602       Al612   1.929       .  S
Al603       O616   1.878       .  S
Al603       O613   1.911       .  S
Al603       O608   1.785       .  S
O604        C611   1.268       .  A
O604       Al612   1.934       .  S
O605        C614   1.262       .  A
O605       Al612   1.928       .  S
O606       Al612   1.855       .  S
O607        C614   1.256       .  A
O608       Al612   1.791       .  S
O609        C610   1.280       .  A
C610        C904   1.507       .  S
C611        C864   1.479       .  S
C614        C954   1.499       .  S
C615        O616   1.258       .  A
C615        C874   1.483       .  S
O617        C632   1.277       .  A
O617       Al625   1.938       .  S
C618        O628   1.267       .  A
C618        O619   1.275       .  A
C618       C1627   1.454       .  S
O619       Al621   1.920       .  S
O620        C622   1.255       .  A
O620       Al621   1.917       .  S
Al621       O629   1.939       .  S
Al621       O631   1.948       .  S
Al621       O630   1.800       .  S
C622        O635   1.251       .  A
C622       C1297   1.479       .  S
O623        C633   1.263       .  A
O623       Al625   1.935       .  S
O624        C637   1.265       .  A
O624       Al634   1.912       .  S
Al625       O638   1.859       .  S
Al625       O635   1.905       .  S
Al625       O630   1.789       .  S
O626        C633   1.251       .  A
O626       Al634   1.871       .  S
O627        C636   1.259       .  A
O627       Al634   1.921       .  S
O628       Al634   1.879       .  S
O629        C636   1.257       .  A
O630       Al634   1.780       .  S
O631        C632   1.283       .  A
C632        C854   1.498       .  S
C633       C1607   1.500       .  S
C636        C897   1.526       .  S
C637        O638   1.254       .  A
C637       C1637   1.470       .  S
O639        C654   1.274       .  A
O639       Al647   1.932       .  S
C640        O650   1.267       .  A
C640        O641   1.274       .  A
C640       C3199   1.463       .  S
O641       Al643   1.922       .  S
O642        C644   1.253       .  A
O642       Al643   1.905       .  S
Al643       O651   1.931       .  S
Al643       O653   1.941       .  S
Al643       O652   1.798       .  S
C644        O657   1.252       .  A
C644       C1614   1.471       .  S
O645        C655   1.261       .  A
O645       Al647   1.921       .  S
O646        C659   1.261       .  A
O646       Al656   1.908       .  S
Al647       O660   1.860       .  S
Al647       O657   1.900       .  S
Al647       O652   1.790       .  S
O648        C655   1.254       .  A
O648       Al656   1.877       .  S
O649        C658   1.258       .  A
O649       Al656   1.919       .  S
O650       Al656   1.899       .  S
O651        C658   1.257       .  A
O652       Al656   1.778       .  S
O653        C654   1.280       .  A
C654        C857   1.495       .  S
C655       C1277   1.486       .  S
C658        C967   1.515       .  S
C659        O660   1.253       .  A
C659       C1334   1.469       .  S
O661        C676   1.254       .  A
O661       Al669   1.880       .  S
C662        O672   1.278       .  A
C662        O663   1.259       .  A
C662       C1047   1.495       .  S
O663       Al665   1.872       .  S
O664        C666   1.254       .  A
O664       Al665   1.879       .  S
Al665       O673   1.920       .  S
Al665       O675   1.892       .  S
Al665       O674   1.781       .  S
C666        O679   1.258       .  A
C666       C1007   1.479       .  S
O667        C677   1.247       .  A
O667       Al669   1.892       .  S
O668        C681   1.282       .  A
O668       Al678   1.952       .  S
Al669       O682   1.905       .  S
Al669       O679   1.902       .  S
Al669       O674   1.795       .  S
O670        C677   1.250       .  A
O670       Al678   1.894       .  S
O671        C680   1.254       .  A
O671       Al678   1.918       .  S
O672       Al678   1.953       .  S
O673        C680   1.260       .  A
O674       Al678   1.802       .  S
O675        C676   1.257       .  A
C676       C1054   1.479       .  S
C677        C927   1.472       .  S
C680        C834   1.508       .  S
C681        O682   1.269       .  A
C681        C844   1.489       .  S
O683        C698   1.263       .  A
O683       Al691   1.909       .  S
C684        O694   1.275       .  A
C684        O685   1.256       .  A
C684        C937   1.485       .  S
O685       Al687   1.857   1_554  S
O686       C2560   1.264       .  A
O686       Al687   1.920       .  S
Al687      O2567   1.898   1_556  S
Al687      O2569   1.901       .  S
Al687      O2568   1.781       .  S
C688        O701   1.262       .  A
C688       O2558   1.263       .  A
C688        C984   1.485       .  S
O689       C2571   1.253       .  A
O689       Al691   1.887       .  S
O690        C703   1.279       .  A
O690      Al2572   1.982       .  S
Al691       O704   1.887       .  S
Al691       O701   1.917       .  S
Al691       O696   1.792       .  S
O692        C699   1.266   1_554  A
O692       Al700   1.937   1_554  S
O693        C702   1.265   1_556  A
O693       Al700   1.939       .  S
O694       Al700   1.972   1_554  S
O695       C2574   1.256       .  A
O695      Al2559   1.891       .  S
O696      Al2559   1.781       .  S
O696      Al2572   1.800       .  S
O697        C698   1.260       .  A
O697      Al2559   1.900       .  S
C698        C947   1.466       .  S
C699       O2561   1.251       .  A
C699       C1024   1.497       .  S
Al700      O2562   1.972       .  S
Al700      O2568   1.795       .  S
C702       O2567   1.259       .  A
C702        C827   1.514       .  S
C703        O704   1.262       .  A
C703        C847   1.522       .  S
O705        C720   1.269       .  A
O705       Al713   1.935       .  S
C706        O716   1.277       .  A
C706        O707   1.259       .  A
C706       C1477   1.489       .  S
O707       Al709   1.873       .  S
O708        C710   1.259       .  A
O708       Al709   1.913       .  S
Al709       O717   1.891       .  S
Al709       O719   1.890       .  S
Al709       O718   1.771       .  S
C710        O723   1.257       .  A
C710       C1447   1.473       .  S
O711        C721   1.260       .  A
O711       Al713   1.909       .  S
O712        C725   1.276       .  A
O712       Al722   1.972       .  S
Al713       O726   1.879       .  S
Al713       O723   1.911       .  S
Al713       O718   1.784       .  S
O714        C721   1.263       .  A
O714       Al722   1.909       .  S
O715        C724   1.263       .  A
O715       Al722   1.943       .  S
O716       Al722   1.978       .  S
O717        C724   1.260       .  A
O718       Al722   1.794       .  S
O719        C720   1.259       .  A
C720       C1487   1.468       .  S
C721        C867   1.495       .  S
C724        C804   1.511       .  S
C725        O726   1.259       .  A
C725        C814   1.511       .  S
O727        C742   1.251       .  A
O727       Al735   1.854       .  S
C728        O738   1.273       .  A
C728        O729   1.266       .  A
C728        C877   1.456   1_554  S
O729       Al731   1.892       .  S
O730        C732   1.253       .  A
O730       Al731   1.884       .  S
Al731       O739   1.911       .  S
Al731       O741   1.902       .  S
Al731       O740   1.780       .  S
C732        O745   1.262       .  A
C732        C914   1.495       .  S
O733        C743   1.252       .  A
O733       Al735   1.894       .  S
O734        C747   1.279       .  A
O734       Al744   1.940       .  S
Al735       O748   1.922       .  S
Al735       O745   1.934       .  S
Al735       O740   1.788       .  S
O736        C743   1.259       .  A
O736       Al744   1.930       .  S
O737        C746   1.260       .  A
O737       Al744   1.948       .  S
O738       Al744   1.913       .  S
O739        C746   1.256       .  A
O740       Al744   1.803       .  S
O741        C742   1.260       .  A
C742        C887   1.461       .  S
C743       C1457   1.480       .  S
C746        C824   1.516       .  S
C747        O748   1.271       .  A
C747        C817   1.488       .  S
O749        C764   1.262       .  A
O749       Al757   1.894       .  S
C750        O760   1.273       .  A
C750        O751   1.261       .  A
C750       C1077   1.460       .  S
O751       Al753   1.858       .  S
O752        C754   1.262       .  A
O752       Al753   1.922       .  S
Al753       O761   1.887       .  S
Al753       O763   1.929       .  S
Al753       O762   1.783       .  S
C754        O767   1.261       .  A
C754       C1124   1.471       .  S
O755        C765   1.252       .  A
O755       Al757   1.899       .  S
O756        C769   1.278       .  A
O756       Al766   1.998       .  S
Al757       O770   1.845       .  S
Al757       O767   1.906       .  S
Al757       O762   1.771       .  S
O758        C765   1.252       .  A
O758       Al766   1.889       .  S
O759        C768   1.262       .  A
O759       Al766   1.928       .  S
O760       Al766   1.944       .  S
O761        C768   1.256       .  A
O762       Al766   1.793       .  S
O763        C764   1.270       .  A
C764       C1087   1.472       .  S
C765       C1507   1.488       .  S
C768        C837   1.511       .  S
C769        O770   1.256       .  A
C769        C794   1.505       .  S
O771       C2658   1.261       .  A
O771      Al2651   1.891       .  S
C772        O782   1.275       .  A
C772        O773   1.262       .  A
C772       C1524   1.462       .  S
O773       Al775   1.862       .  S
O774        C776   1.261       .  A
O774       Al775   1.921       .  S
Al775       O783   1.885       .  S
Al775       O785   1.922       .  S
Al775       O784   1.779       .  S
C776        O789   1.260       .  A
C776       C1557   1.471       .  S
O777        C787   1.252       .  A
O777       Al779   1.894       .  S
O778        C791   1.279       .  A
O778       Al788   1.994       .  S
Al779       O792   1.857       .  S
Al779       O789   1.913       .  S
Al779      O2643   1.899       .  S
Al779       O784   1.767       .  S
O780        C787   1.253       .  A
O780       Al788   1.893       .  S
O781        C790   1.269       .  A
O781       Al788   1.935       .  S
O782       Al788   1.939       .  S
O783        C790   1.249       .  A
O784       Al788   1.793       .  S
O785        C786   1.270       .  A
C786       O2643   1.264       .  A
C786       C3409   1.483       .  S
C787       C1067   1.488       .  S
C790        C807   1.522       .  S
C791        O792   1.259       .  A
C791       C2669   1.503       .  S
C793        C794   1.416       .  A
C793        C798   1.385       .  A
C793       Br800   1.934       .  S
C794        C795   1.421       .  A
C795        C796   1.434       .  A
C795       Br802   1.921       .  S
C796        C797   1.417       .  A
C796       Br801   1.922       .  S
C797       C2663   1.492   1_554  S
C797        C798   1.401       .  A
C798      Br2671   1.933   1_554  S
Br799      C2670   1.935       .  S
C803        C804   1.408       .  A
C803        C808   1.403       .  A
C803       Br810   1.939       .  S
C804        C805   1.424       .  A
C805        C806   1.432       .  A
C805       Br812   1.928       .  S
C806        C807   1.423       .  A
C806       Br811   1.929       .  S
C807        C808   1.422       .  A
C808       Br809   1.935       .  S
C813        C814   1.420       .  A
C813        C818   1.417       .  A
C813       Br820   1.931       .  S
C814        C815   1.425       .  A
C815        C816   1.413       .  A
C815       Br822   1.924       .  S
C816        C817   1.404       .  A
C816       Br821   1.933       .  S
C817        C818   1.409       .  A
C818       Br819   1.922       .  S
C823        C824   1.424       .  A
C823        C828   1.412       .  A
C823       Br830   1.926       .  S
C824        C825   1.417       .  A
C825        C826   1.427       .  A
C825       Br832   1.930       .  S
C826        C827   1.422       .  A
C826       Br831   1.927       .  S
C827        C828   1.411       .  A
C828      Br2701   1.939   1_554  S
Br829      C2700   1.939       .  S
C833        C834   1.417       .  A
C833        C838   1.426       .  A
C833       Br840   1.931       .  S
C834        C835   1.419       .  A
C835        C836   1.408       .  A
C835       Br842   1.926       .  S
C836        C837   1.412       .  A
C836       Br841   1.939       .  S
C837        C838   1.423       .  A
C838       Br839   1.929       .  S
C843        C844   1.410       .  A
C843        C848   1.422       .  A
C843       Br850   1.928       .  S
C844        C845   1.401       .  A
C845        C846   1.413       .  A
C845       Br852   1.935       .  S
C846        C847   1.428       .  A
C846       Br851   1.920       .  S
C847        C848   1.424       .  A
C848       Br849   1.930       .  S
C853        C854   1.410       .  A
C853        C858   1.417       .  A
C853       Br860   1.928       .  S
C854        C855   1.414       .  A
C855        C856   1.417       .  A
C855       Br862   1.919       .  S
C856        C857   1.410       .  A
C856       Br861   1.930       .  S
C857        C858   1.413       .  A
C858       Br859   1.923       .  S
C863        C864   1.406       .  A
C863        C868   1.412       .  A
C863       Br870   1.925       .  S
C864        C865   1.406       .  A
C865        C866   1.409       .  A
C865       Br872   1.928       .  S
C866        C867   1.414       .  A
C866       Br871   1.925       .  S
C867        C868   1.421       .  A
C868       Br869   1.934       .  S
C873        C874   1.421       .  A
C873       C2750   1.392       .  A
C873       Br880   1.939       .  S
C874        C875   1.418       .  A
C875        C876   1.412       .  A
C875       Br882   1.929       .  S
C876       C2749   1.406       .  A
C876       Br881   1.927       .  S
C877        C878   1.393       .  A
C877       C2748   1.408       .  A
C878       C2745   1.393       .  A
C878       Br879   1.928   1_556  S
C883        C884   1.396       .  A
C883        C888   1.393       .  A
C883       Br890   1.935       .  S
C884        C885   1.414       .  A
C885        C886   1.404       .  A
C885       Br892   1.929       .  S
C886        C887   1.404       .  A
C886       Br891   1.931       .  S
C887        C888   1.417       .  A
C888       Br889   1.928       .  S
C893        C894   1.421   1_545  A
C893        C898   1.424       .  A
C893       Br900   1.937   1_545  S
C894        C895   1.424       .  A
C895        C896   1.425   1_565  A
C895       Br902   1.932       .  S
C896        C897   1.417       .  A
C896       Br901   1.931       .  S
C897        C898   1.428       .  A
C898       Br899   1.928       .  S
C903        C904   1.416       .  A
C903        C908   1.416       .  A
C903       Br910   1.930       .  S
C904        C905   1.415       .  A
C905        C906   1.423       .  A
C905       Br912   1.929       .  S
C906        C907   1.416       .  A
C906       Br911   1.926       .  S
C907       C2460   1.502       .  S
C907        C908   1.411       .  A
C908      Br2781   1.927       .  S
Br909      C2780   1.928   1_554  S
C913        C914   1.413       .  A
C913        C918   1.422       .  A
C913       Br920   1.926       .  S
C914        C915   1.417       .  A
C915        C916   1.400       .  A
C915       Br922   1.928       .  S
C916        C917   1.407       .  A
C916       Br921   1.937       .  S
C917        C918   1.422       .  A
C918       Br919   1.929       .  S
C923        C924   1.408       .  A
C923        C928   1.408       .  A
C923       Br930   1.931       .  S
C924        C925   1.405       .  A
C925        C926   1.404       .  A
C925       Br932   1.929       .  S
C926        C927   1.411       .  A
C926       Br931   1.929       .  S
C927        C928   1.408       .  A
C928       Br929   1.927       .  S
C933        C934   1.409       .  A
C933        C938   1.410       .  A
C933       Br940   1.920       .  S
C934        C935   1.394       .  A
C935        C936   1.403       .  A
C935       Br942   1.929       .  S
C936        C937   1.423       .  A
C936       Br941   1.919       .  S
C937        C938   1.406       .  A
C938       Br939   1.921       .  S
C943        C944   1.406       .  A
C943        C948   1.401       .  A
C943       Br950   1.926       .  S
C944        C945   1.424       .  A
C945        C946   1.406       .  A
C945       Br952   1.929       .  S
C946        C947   1.398       .  A
C946       Br951   1.934       .  S
C947        C948   1.403       .  A
C948       Br949   1.918       .  S
C953        C954   1.430       .  A
C953        C958   1.418       .  A
C953       Br960   1.918       .  S
C954        C955   1.399       .  A
C955        C956   1.405       .  A
C955       Br962   1.928       .  S
C956        C957   1.419       .  A
C956       Br961   1.911       .  S
C957        C958   1.401       .  A
C958       Br959   1.928       .  S
C963        C964   1.419       .  A
C963        C968   1.418       .  A
C963       Br970   1.936       .  S
C964       C2420   1.520       .  S
C964        C965   1.425       .  A
C965        C966   1.423       .  A
C965      Br2844   1.933       .  S
C966        C967   1.417       .  A
C966       Br971   1.934       .  S
C967        C968   1.422       .  A
C968       Br969   1.930       .  S
Br972      C2837   1.932       .  S
C973        C974   1.423       .  A
C973        C978   1.415       .  A
C973       Br980   1.921       .  S
C974        C975   1.420   1_565  A
C975        C976   1.421       .  A
C975       Br982   1.929       .  S
C976        C977   1.412       .  A
C976       Br981   1.929       .  S
C977        C978   1.404   1_545  A
C978       Br979   1.932       .  S
C983        C984   1.412       .  A
C983        C988   1.415       .  A
C983       Br990   1.930       .  S
C984       C2857   1.407       .  A
C985        C986   1.409       .  A
C985       C2856   1.407       .  A
C985       Br992   1.931       .  S
C986       C2859   1.415       .  A
C986       Br991   1.926       .  S
C987        C988   1.410       .  A
C987       C2858   1.415       .  A
C988       Br989   1.922   1_565  S
C993        C994   1.412       .  A
C993        C998   1.416       .  A
C993      Br2872   1.921       .  S
C994       C2372   1.506       .  S
C994        C995   1.417       .  A
C995        C996   1.419       .  A
C995      Br1002   1.933       .  S
C996        C997   1.416       .  A
C996      Br1001   1.924       .  S
C997        C998   1.417       .  A
C998       Br999   1.931       .  S
Br1000     C2865   1.924   1_554  S
C1003      C1004   1.424   1_655  A
C1003      C1008   1.416       .  A
C1003     Br1010   1.931   1_655  S
C1004      C1005   1.417   1_455  A
C1005      C1006   1.399       .  A
C1005     Br1012   1.937       .  S
C1006      C1007   1.412       .  A
C1006     Br1011   1.936       .  S
C1007      C1008   1.409       .  A
C1008     Br1009   1.931       .  S
C1013      C1014   1.402       .  A
C1013      C1018   1.423       .  A
C1013     Br1020   1.928       .  S
C1014      C1015   1.425       .  A
C1015      C1016   1.420       .  A
C1015     Br1022   1.916       .  S
C1016      C1017   1.404       .  A
C1016     Br1021   1.927       .  S
C1017      C1018   1.432       .  A
C1018     Br1019   1.916       .  S
C1023      C1024   1.423       .  A
C1023      C1028   1.410       .  A
C1023     Br1030   1.935       .  S
C1024      C2897   1.411   1_556  A
C1025      C1026   1.415       .  A
C1025      C2896   1.411       .  A
C1025     Br1032   1.926       .  S
C1026      C2899   1.412       .  A
C1026     Br1031   1.929       .  S
C1027      C1028   1.404   1_554  A
C1027      C2898   1.412       .  A
C1028     Br1029   1.928       .  S
C1033      C1034   1.430   1_455  A
C1033      C1038   1.429       .  A
C1033     Br1040   1.924       .  S
C1034      C1035   1.433       .  A
C1035      C1036   1.404       .  A
C1035     Br1042   1.944       .  S
C1036      C1037   1.397   1_655  A
C1036     Br1041   1.917       .  S
C1037      C1038   1.410       .  A
C1038     Br1039   1.926       .  S
C1043      C1044   1.408       .  A
C1043      C1048   1.416       .  A
C1043     Br1050   1.928       .  S
C1044      C1045   1.391       .  A
C1045      C1046   1.395       .  A
C1045     Br1052   1.935       .  S
C1046      C1047   1.427       .  A
C1046     Br1051   1.932       .  S
C1047      C1048   1.418       .  A
C1048     Br1049   1.927       .  S
C1053      C1054   1.409       .  A
C1053      C1058   1.407       .  A
C1053     Br1060   1.932       .  S
C1054      C1055   1.422       .  A
C1055      C1056   1.403       .  A
C1055     Br1062   1.929       .  S
C1056      C1057   1.398       .  A
C1056     Br1061   1.933       .  S
C1057      C1058   1.410       .  A
C1058     Br1059   1.919       .  S
C1063      C1064   1.410       .  A
C1063      C1068   1.415       .  A
C1063     Br1070   1.927       .  S
C1064      C1065   1.419       .  A
C1065      C1066   1.404       .  A
C1065     Br1072   1.935       .  S
C1066      C1067   1.413       .  A
C1066     Br1071   1.940       .  S
C1067      C1068   1.415       .  A
C1068     Br1069   1.929       .  S
C1073      C1074   1.402       .  A
C1073      C1078   1.404       .  A
C1073     Br1080   1.931       .  S
C1074      C1075   1.419       .  A
C1075      C1076   1.399       .  A
C1075     Br1082   1.926       .  S
C1076      C1077   1.399       .  A
C1076     Br1081   1.934       .  S
C1077      C1078   1.409       .  A
C1078     Br1079   1.911       .  S
C1083      C1084   1.407       .  A
C1083      C1088   1.391       .  A
C1083     Br2962   1.925   1_554  S
C1084      C2292   1.476   1_554  S
C1084      C1085   1.412       .  A
C1085      C1086   1.418       .  A
C1085     Br1092   1.923       .  S
C1086      C1087   1.412       .  A
C1086     Br1091   1.924       .  S
C1087      C1088   1.402       .  A
C1088     Br1089   1.922       .  S
Br1090     C2955   1.929       .  S
C1093      C1094   1.425       .  A
C1093      C1098   1.410       .  A
C1093     Br1100   1.925       .  S
C1094      C1095   1.417       .  A
C1095      C1096   1.424       .  A
C1095     Br1102   1.930       .  S
C1096      C1097   1.421       .  A
C1096     Br2973   1.928       .  S
C1097      C2332   1.505       .  S
C1097      C1098   1.407       .  A
C1098     Br1099   1.937       .  S
Br1101     C2968   1.927       .  S
C1103      C1104   1.404   1_455  A
C1103      C1108   1.420       .  A
C1103     Br1110   1.928       .  S
C1104      C1105   1.427       .  A
C1105      C1106   1.419   1_655  A
C1105     Br1112   1.921       .  S
C1106      C1107   1.404       .  A
C1106     Br1111   1.926       .  S
C1107      C1108   1.428       .  A
C1108     Br1109   1.916       .  S
C1113      C1114   1.414       .  A
C1113      C1118   1.417       .  A
C1113     Br1120   1.924       .  S
C1114      C1115   1.408       .  A
C1115      C1116   1.416       .  A
C1115     Br1122   1.929       .  S
C1116      C1117   1.415       .  A
C1116     Br1121   1.923       .  S
C1117      C1118   1.411       .  A
C1118     Br1119   1.930       .  S
C1123      C1124   1.411       .  A
C1123      C1128   1.409       .  A
C1123     Br1130   1.927       .  S
C1124      C1125   1.405       .  A
C1125      C1126   1.406       .  A
C1125     Br1132   1.929       .  S
C1126      C1127   1.412       .  A
C1126     Br1131   1.924       .  S
C1127      C1128   1.404       .  A
C1128     Br1129   1.923       .  S
C1133      C1134   1.407       .  A
C1133      C1138   1.407       .  A
C1133     Br1140   1.928       .  S
C1134      C1135   1.413       .  A
C1135      C1136   1.412       .  A
C1135     Br1142   1.929       .  S
C1136      C1137   1.407       .  A
C1136     Br1141   1.922       .  S
C1137      C1138   1.408       .  A
C1138     Br1139   1.919       .  S
C1143      C1144   1.421       .  A
C1143      C1148   1.401       .  A
C1143     Br1150   1.941       .  S
C1144      C1145   1.415       .  A
C1145      C1146   1.420       .  A
C1145     Br1152   1.927       .  S
C1146      C1147   1.416       .  A
C1146     Br1151   1.930       .  S
C1147      C1148   1.416       .  A
C1148     Br1149   1.943       .  S
C1153      C1154   1.399       .  A
C1153      C1158   1.399       .  A
C1153     Br1160   1.936       .  S
C1154      C1155   1.415       .  A
C1155      C1156   1.404       .  A
C1155     Br1162   1.929       .  S
C1156      C1157   1.405       .  A
C1156     Br1161   1.932       .  S
C1157      C1158   1.419       .  A
C1158     Br1159   1.928       .  S
C1163      C1164   1.408       .  A
C1163      C1168   1.415       .  A
C1163     Br1170   1.925       .  S
C1164      C1165   1.395       .  A
C1165      C1166   1.395       .  A
C1165     Br1172   1.928       .  S
C1166      C1167   1.425       .  A
C1166     Br3043   1.940       .  S
C1167      C2377   1.489       .  S
C1167      C1168   1.418       .  A
C1168     Br1169   1.928       .  S
Br1171     C3038   1.936       .  S
C1173      C1174   1.413       .  A
C1173      C1178   1.419       .  A
C1173     Br1180   1.928       .  S
C1174      C1175   1.413       .  A
C1175      C1176   1.413       .  A
C1175     Br1182   1.917       .  S
C1176      C1177   1.406       .  A
C1176     Br1181   1.929       .  S
C1177      C1178   1.414       .  A
C1178     Br1179   1.927       .  S
C1183      C1184   1.421       .  A
C1183      C1188   1.413       .  A
C1183     Br1190   1.928       .  S
C1184      C1185   1.415       .  A
C1185      C1186   1.426       .  A
C1185     Br1192   1.931       .  S
C1186      C1187   1.427       .  A
C1186     Br3063   1.930       .  S
C1187      C1188   1.415       .  A
C1188     Br1189   1.939   1_554  S
Br1191     C3058   1.929       .  S
C1193      C1194   1.419       .  A
C1193      C1198   1.404       .  A
C1193     Br1200   1.945       .  S
C1194      C1195   1.417       .  A
C1195      C1196   1.418       .  A
C1195     Br1202   1.928   1_655  S
C1196      C1197   1.410       .  A
C1196     Br1201   1.928       .  S
C1197      C1198   1.416       .  A
C1198     Br1199   1.933       .  S
C1203      C1204   1.413       .  A
C1203      C1208   1.404       .  A
C1203     Br1210   1.930       .  S
C1204      C1205   1.410       .  A
C1205      C1206   1.420       .  A
C1205     Br1212   1.924       .  S
C1206      C1207   1.419       .  A
C1206     Br1211   1.930   1_545  S
C1207      C1208   1.421       .  A
C1208     Br1209   1.944       .  S
C1213      C1214   1.408       .  A
C1213      C1218   1.411       .  A
C1213     Br1220   1.927       .  S
C1214      C1215   1.398       .  A
C1215      C1216   1.400       .  A
C1215     Br1222   1.930       .  S
C1216      C1217   1.426       .  A
C1216     Br1221   1.938       .  S
C1217      C1218   1.419       .  A
C1218     Br1219   1.933       .  S
C1223      C1224   1.402       .  A
C1223      C1228   1.407       .  A
C1223     Br1230   1.918       .  S
C1224      C1225   1.394       .  A
C1225      C1226   1.400       .  A
C1225     Br1232   1.934       .  S
C1226      C1227   1.428       .  A
C1226     Br1231   1.930       .  S
C1227      C1228   1.415       .  A
C1228     Br1229   1.930       .  S
C1233      C1234   1.413   1_655  A
C1233      C1238   1.418       .  A
C1233     Br1240   1.926       .  S
C1234      C1235   1.413       .  A
C1235      C1236   1.415       .  A
C1235     Br1242   1.928       .  S
C1236      C1237   1.411   1_455  A
C1236     Br1241   1.928       .  S
C1237      C1238   1.414       .  A
C1238     Br1239   1.927       .  S
C1243      C1244   1.410       .  A
C1243      C1248   1.409       .  A
C1243     Br1250   1.927       .  S
C1244      C1245   1.406       .  A
C1245      C1246   1.401       .  A
C1245     Br1252   1.922       .  S
C1246      C1247   1.406       .  A
C1246     Br1251   1.928       .  S
C1247      C1248   1.405       .  A
C1248     Br1249   1.926       .  S
C1253      C1254   1.391       .  A
C1253      C1258   1.400       .  A
C1253     Br1260   1.934       .  S
C1254      C2174   1.464   1_554  S
C1254      C1255   1.404       .  A
C1255      C1256   1.407       .  A
C1255     Br3134   1.922   1_554  S
C1256      C1257   1.415       .  A
C1256     Br1261   1.928       .  S
C1257      C1258   1.438       .  A
C1258     Br1259   1.942       .  S
Br1262     C3127   1.927       .  S
C1263      C1264   1.411       .  A
C1263      C1268   1.399       .  A
C1263     Br1270   1.905       .  S
C1264      C1265   1.395       .  A
C1265      C1266   1.403       .  A
C1265     Br1272   1.938       .  S
C1266      C1267   1.430       .  A
C1266     Br1271   1.934       .  S
C1267      C1268   1.401       .  A
C1268     Br1269   1.936       .  S
C1273      C1274   1.415       .  A
C1273      C1278   1.399       .  A
C1273     Br1280   1.944       .  S
C1274      C1275   1.417       .  A
C1275      C1276   1.416       .  A
C1275     Br1282   1.931       .  S
C1276      C1277   1.412       .  A
C1276     Br1281   1.927       .  S
C1277      C1278   1.417       .  A
C1278     Br1279   1.936       .  S
C1283      C1284   1.424       .  A
C1283      C1288   1.420   1_655  A
C1283     Br1290   1.929       .  S
C1284      C1285   1.410   1_655  A
C1285      C1286   1.413       .  A
C1285     Br1292   1.937       .  S
C1286      C1287   1.424       .  A
C1286     Br1291   1.925       .  S
C1287      C1288   1.412       .  A
C1288     Br1289   1.933       .  S
C1293      C1294   1.409       .  A
C1293      C1298   1.408       .  A
C1293     Br1300   1.927       .  S
C1294      C1295   1.411       .  A
C1295      C1296   1.410       .  A
C1295     Br1302   1.926       .  S
C1296      C1297   1.407       .  A
C1296     Br1301   1.927       .  S
C1297      C1298   1.410       .  A
C1298     Br1299   1.928       .  S
C1303      C1304   1.419       .  A
C1303      C1308   1.417       .  A
C1303     Br1310   1.939       .  S
C1304      C1305   1.424       .  A
C1305      C1306   1.425       .  A
C1305     Br1312   1.930       .  S
C1306      C1307   1.419       .  A
C1306     Br1311   1.933       .  S
C1307      C1308   1.422       .  A
C1308     Br1309   1.930       .  S
C1313      C1314   1.414       .  A
C1313      C1318   1.415       .  A
C1313     Br1320   1.924       .  S
C1314      C2179   1.509   1_554  S
C1314      C1315   1.419       .  A
C1315      C1316   1.417       .  A
C1315     Br3194   1.923   1_554  S
C1316      C1317   1.413       .  A
C1316     Br1321   1.933       .  S
C1317      C1318   1.413       .  A
C1318     Br1319   1.924       .  S
Br1322     C3187   1.926       .  S
C1323      C1324   1.428       .  A
C1323      C1328   1.393       .  A
C1323     Br1330   1.943       .  S
C1324      C1325   1.420       .  A
C1325      C1326   1.412       .  A
C1325     Br1332   1.930       .  S
C1326      C1327   1.406       .  A
C1326     Br3203   1.927       .  S
C1327      C2512   1.455   1_554  S
C1327      C1328   1.393       .  A
C1328     Br1329   1.932   1_554  S
Br1331     C3198   1.925       .  S
C1333      C1334   1.400       .  A
C1333      C1338   1.401       .  A
C1333     Br1340   1.930       .  S
C1334      C1335   1.419       .  A
C1335      C1336   1.403       .  A
C1335     Br1342   1.927       .  S
C1336      C1337   1.401       .  A
C1336     Br1341   1.935       .  S
C1337      C1338   1.412       .  A
C1338     Br1339   1.917       .  S
C1343      C1344   1.424       .  A
C1343      C1348   1.415       .  A
C1343     Br1350   1.936       .  S
C1344      C1345   1.417       .  A
C1345      C1346   1.407       .  A
C1345     Br1352   1.944       .  S
C1346      C1347   1.422       .  A
C1346     Br1351   1.939       .  S
C1347      C1348   1.410       .  A
C1348     Br1349   1.932       .  S
C1353      C1358   1.411       .  A
C1353      C3226   1.408   1_554  A
C1353     Br1360   1.924       .  S
C1354      C1355   1.410       .  A
C1354      C3225   1.408       .  A
C1355      C1356   1.418       .  A
C1355     Br1362   1.929       .  S
C1356      C1357   1.415       .  A
C1356     Br1361   1.912       .  S
C1357      C3230   1.409       .  A
C1358      C3229   1.412       .  A
C1358     Br1359   1.930       .  S
C1363      C1364   1.411       .  A
C1363      C1368   1.400       .  A
C1363     Br1370   1.939       .  S
C1364      C1365   1.419       .  A
C1365      C1366   1.421       .  A
C1365     Br1372   1.927       .  S
C1366      C1367   1.414       .  A
C1366     Br1371   1.927       .  S
C1367      C1368   1.417       .  A
C1368     Br1369   1.932       .  S
C1373      C1374   1.401       .  A
C1373      C1378   1.399       .  A
C1373     Br1380   1.931       .  S
C1374      C1375   1.419       .  A
C1375      C1376   1.401       .  A
C1375     Br1382   1.929       .  S
C1376      C1377   1.399       .  A
C1376     Br1381   1.933       .  S
C1377      C1378   1.410       .  A
C1378     Br1379   1.913       .  S
C1383      C1384   1.419       .  A
C1383      C1388   1.413       .  A
C1383     Br1390   1.930       .  S
C1384      C1385   1.426       .  A
C1385      C1386   1.399       .  A
C1385     Br1392   1.938       .  S
C1386      C1387   1.396       .  A
C1386     Br1391   1.934       .  S
C1387      C1388   1.407       .  A
C1388     Br1389   1.925       .  S
C1393      C1394   1.411       .  A
C1393      C1398   1.419       .  A
C1393     Br1400   1.925       .  S
C1394      C1395   1.404       .  A
C1395      C1396   1.410       .  A
C1395     Br1402   1.931       .  S
C1396      C1397   1.415       .  A
C1396     Br1401   1.912       .  S
C1397      C1398   1.415       .  A
C1398     Br1399   1.928       .  S
C1403      C1404   1.416       .  A
C1403      C1408   1.411       .  A
C1403     Br1410   1.930       .  S
C1404      C1405   1.409       .  A
C1405      C1406   1.403       .  A
C1405     Br1412   1.920       .  S
C1406      C1407   1.407       .  A
C1406     Br1411   1.928       .  S
C1407      C1408   1.407       .  A
C1408     Br1409   1.928       .  S
C1413      C1414   1.422       .  A
C1413      C1418   1.415       .  A
C1413     Br1420   1.929       .  S
C1414      C1415   1.418       .  A
C1415      C1416   1.418       .  A
C1415     Br1422   1.934       .  S
C1416      C1417   1.419       .  A
C1416     Br1421   1.933       .  S
C1417      C1418   1.417       .  A
C1418     Br1419   1.934       .  S
C1423      C1424   1.421       .  A
C1423      C3300   1.416       .  A
C1423     Br1430   1.929       .  S
C1424      C1425   1.419       .  A
C1425      C1426   1.395       .  A
C1425     Br1432   1.938       .  S
C1426      C3299   1.401       .  A
C1426     Br1431   1.926       .  S
C1427      C1428   1.401   1_554  A
C1427      C3298   1.398       .  A
C1428      C3295   1.410       .  A
C1428     Br1429   1.926       .  S
C1433      C1434   1.401       .  A
C1433      C1438   1.403       .  A
C1433     Br1440   1.934       .  S
C1434      C1435   1.409       .  A
C1435      C1436   1.406       .  A
C1435     Br1442   1.908       .  S
C1436      C1437   1.407       .  A
C1436     Br1441   1.933       .  S
C1437      C1438   1.423       .  A
C1438     Br1439   1.929       .  S
C1443      C1444   1.417       .  A
C1443      C1448   1.410       .  A
C1443     Br1450   1.929       .  S
C1444      C1445   1.409       .  A
C1445      C1446   1.407       .  A
C1445     Br1452   1.922       .  S
C1446      C1447   1.404       .  A
C1446     Br1451   1.929       .  S
C1447      C1448   1.406       .  A
C1448     Br1449   1.929       .  S
C1453      C1454   1.412       .  A
C1453      C1458   1.408       .  A
C1453     Br1460   1.926       .  S
C1454      C1455   1.405       .  A
C1455      C1456   1.410       .  A
C1455     Br1462   1.932       .  S
C1456      C1457   1.416       .  A
C1456     Br1461   1.926       .  S
C1457      C1458   1.405       .  A
C1458     Br1459   1.929       .  S
C1463      C1464   1.424       .  A
C1463      C1468   1.423       .  A
C1463     Br3342   1.928       .  S
C1464      C2064   1.520       .  S
C1464      C1465   1.430       .  A
C1465      C1466   1.410       .  A
C1465     Br1472   1.926       .  S
C1466      C1467   1.400       .  A
C1466     Br1471   1.934       .  S
C1467      C1468   1.409       .  A
C1468     Br1469   1.928       .  S
Br1470     C3335   1.923       .  S
C1473      C1474   1.405       .  A
C1473      C1478   1.410       .  A
C1473     Br3352   1.922       .  S
C1474      C2069   1.463       .  S
C1474      C1475   1.390       .  A
C1475      C1476   1.400       .  A
C1475     Br1482   1.938       .  S
C1476      C1477   1.428       .  A
C1476     Br1481   1.920       .  S
C1477      C1478   1.411       .  A
C1478     Br1479   1.922       .  S
Br1480     C3345   1.928   1_554  S
C1483      C1484   1.412       .  A
C1483      C1488   1.405       .  A
C1483     Br1490   1.927       .  S
C1484      C1485   1.418       .  A
C1485      C1486   1.406       .  A
C1485     Br1492   1.927       .  S
C1486      C1487   1.397       .  A
C1486     Br1491   1.927       .  S
C1487      C1488   1.401       .  A
C1488     Br1489   1.922       .  S
C1493      C1494   1.423       .  A
C1493      C1498   1.406       .  A
C1493     Br1500   1.930       .  S
C1494      C1495   1.410       .  A
C1495      C1496   1.418       .  A
C1495     Br1502   1.928       .  S
C1496      C1497   1.419       .  A
C1496     Br1501   1.931       .  S
C1497      C1498   1.410       .  A
C1498     Br1499   1.941       .  S
C1503      C1504   1.420       .  A
C1503      C1508   1.402       .  A
C1503     Br1510   1.941       .  S
C1504      C1505   1.411       .  A
C1505      C1506   1.415       .  A
C1505     Br1512   1.930       .  S
C1506      C1507   1.418       .  A
C1506     Br1511   1.931       .  S
C1507      C1508   1.415       .  A
C1508     Br1509   1.942       .  S
C1513      C1514   1.423       .  A
C1513      C1518   1.425       .  A
C1513     Br1520   1.928       .  S
C1514      C1515   1.408       .  A
C1515      C1516   1.411       .  A
C1515     Br1522   1.937       .  S
C1516      C1517   1.422       .  A
C1516     Br1521   1.923       .  S
C1517      C1518   1.415       .  A
C1518     Br1519   1.930       .  S
C1523      C1524   1.413       .  A
C1523      C1528   1.400       .  A
C1523     Br1530   1.917       .  S
C1524      C1525   1.401       .  A
C1525      C1526   1.399       .  A
C1525     Br1532   1.935       .  S
C1526      C1527   1.419       .  A
C1526     Br1531   1.920       .  S
C1527      C1528   1.396       .  A
C1528     Br1529   1.928       .  S
C1533      C1534   1.399       .  A
C1533      C1538   1.397       .  A
C1533     Br1540   1.930       .  S
C1534      C1535   1.405       .  A
C1535      C1536   1.411       .  A
C1535     Br1542   1.927       .  S
C1536      C1537   1.417       .  A
C1536     Br1541   1.928   1_554  S
C1537      C2658   1.482   1_554  S
C1537      C1538   1.419       .  A
C1538     Br1539   1.936       .  S
C1543      C1544   1.407       .  A
C1543      C1548   1.414       .  A
C1543     Br1550   1.928       .  S
C1544      C1545   1.414       .  A
C1545      C1546   1.416       .  A
C1545     Br1552   1.927       .  S
C1546      C1547   1.411       .  A
C1546     Br1551   1.930       .  S
C1547      C1548   1.413       .  A
C1548     Br1549   1.916       .  S
C1553      C1554   1.404       .  A
C1553      C1558   1.401       .  A
C1553     Br1560   1.928       .  S
C1554      C1555   1.414       .  A
C1555      C1556   1.411       .  A
C1555     Br1562   1.927       .  S
C1556      C1557   1.406       .  A
C1556     Br1561   1.929       .  S
C1557      C1558   1.409       .  A
C1558     Br1559   1.921       .  S
C1563      C1564   1.422       .  A
C1563      C1568   1.427       .  A
C1563     Br1570   1.934       .  S
C1564      C1565   1.423       .  A
C1565      C1566   1.424       .  A
C1565     Br1572   1.938       .  S
C1566      C1567   1.429       .  A
C1566     Br3443   1.935       .  S
C1567      C2134   1.534       .  S
C1567      C1568   1.422       .  A
C1568     Br1569   1.932       .  S
Br1571     C3438   1.932       .  S
C1573      C1574   1.410       .  A
C1573      C1578   1.403       .  A
C1573     Br1580   1.922       .  S
C1574      C1575   1.412       .  A
C1575      C1576   1.413       .  A
C1575     Br1582   1.928       .  S
C1576      C1577   1.407       .  A
C1576     Br1581   1.927       .  S
C1577      C1578   1.406       .  A
C1578     Br1579   1.930       .  S
C1583      C1584   1.393       .  A
C1583      C1588   1.405       .  A
C1583     Br1590   1.937       .  S
C1584      C1585   1.408       .  A
C1585      C1586   1.414       .  A
C1585     Br1592   1.921       .  S
C1586      C1587   1.415       .  A
C1586     Br1591   1.927       .  S
C1587      C2006   1.506   1_554  S
C1587      C1588   1.437       .  A
C1588     Br3461   1.933   1_554  S
Br1589     C3460   1.938       .  S
C1593      C1594   1.393       .  A
C1593      C1598   1.401       .  A
C1593     Br1600   1.935       .  S
C1594      C1595   1.402       .  A
C1595      C1596   1.404       .  A
C1595     Br1602   1.907       .  S
C1596      C1597   1.406       .  A
C1596     Br1601   1.927       .  S
C1597      C1598   1.424       .  A
C1598     Br1599   1.924       .  S
C1603      C1604   1.421       .  A
C1603      C1608   1.418       .  A
C1603     Br1610   1.933       .  S
C1604      C1605   1.419       .  A
C1605      C1606   1.408       .  A
C1605     Br1612   1.944       .  S
C1606      C1607   1.421       .  A
C1606     Br1611   1.941       .  S
C1607      C1608   1.412       .  A
C1608     Br1609   1.929       .  S
C1613      C1614   1.411       .  A
C1613      C1618   1.406       .  A
C1613     Br1620   1.928       .  S
C1614      C1615   1.406       .  A
C1615      C1616   1.406       .  A
C1615     Br1622   1.928       .  S
C1616      C1617   1.410       .  A
C1616     Br1621   1.928       .  S
C1617      C1618   1.406       .  A
C1618     Br1619   1.929       .  S
C1623      C1624   1.421       .  A
C1623      C1628   1.393       .  A
C1623     Br1630   1.938       .  S
C1624      C1976   1.483       .  S
C1624      C1625   1.417       .  A
C1625      C1626   1.412       .  A
C1625     Br3504   1.928       .  S
C1626      C1627   1.406       .  A
C1626     Br1631   1.926       .  S
C1627      C1628   1.395       .  A
C1628     Br1629   1.926       .  S
Br1632     C3497   1.928       .  S
C1633      C1634   1.415       .  A
C1633      C1638   1.403       .  A
C1633     Br1640   1.917       .  S
C1634      C1635   1.398       .  A
C1635      C1636   1.399       .  A
C1635     Br1642   1.935       .  S
C1636      C1637   1.421       .  A
C1636     Br1641   1.927       .  S
C1637      C1638   1.401       .  A
C1638     Br1639   1.931       .  S
C1643      C1644   1.421       .  A
C1643      C1648   1.420       .  A
C1643     Br1650   1.924       .  S
C1644      C1645   1.418       .  A
C1645      C1646   1.417       .  A
C1645     Br1652   1.924       .  S
C1646      C1647   1.408       .  A
C1646     Br3523   1.919   1_554  S
C1647      C1981   1.504   1_554  S
C1647      C1648   1.410       .  A
C1648     Br1649   1.930       .  S
Br1651     C3518   1.929       .  S
C1653      C1654   1.412       .  A
C1653      C1658   1.407       .  A
C1653     Br1660   1.938       .  S
C1654      C1655   1.414       .  A
C1655      C1656   1.416       .  A
C1655     Br1662   1.931       .  S
C1656      C1657   1.416       .  A
C1656     Br1661   1.931       .  S
C1657      C1658   1.422       .  A
C1658     Br1659   1.936       .  S
C1663      C1664   1.409       .  A
C1663      C1668   1.416       .  A
C1663     Br1670   1.929       .  S
C1664      C1665   1.416       .  A
C1665      C1666   1.406       .  A
C1665     Br1672   1.937       .  S
C1666      C1667   1.420       .  A
C1666     Br1671   1.942       .  S
C1667      C1668   1.419       .  A
C1668     Br1669   1.930       .  S
C1673      C1674   1.404       .  A
C1673      C1678   1.399       .  A
C1673     Br1680   1.934       .  S
C1674      C1675   1.418       .  A
C1675      C1676   1.402       .  A
C1675     Br1682   1.931       .  S
C1676      C1677   1.401       .  A
C1676     Br1681   1.933       .  S
C1677      C1678   1.415       .  A
C1678     Br1679   1.930       .  S
C1683      C1684   1.423       .  A
C1683      C1688   1.411       .  A
C1683     Br1690   1.915       .  S
C1684      C1685   1.406       .  A
C1685      C1686   1.407       .  A
C1685     Br1692   1.933       .  S
C1686      C1687   1.416       .  A
C1686     Br3563   1.909       .  S
C1687      C1940   1.491       .  S
C1687      C1688   1.404       .  A
C1688     Br1689   1.932       .  S
Br1691     C3558   1.926   1_554  S
C1693      C1694   1.417       .  A
C1693      C1698   1.400       .  A
C1693     Br1700   1.943       .  S
C1694      C1695   1.422       .  A
C1695      C1696   1.420       .  A
C1695     Br1702   1.929       .  S
C1696      C1697   1.411       .  A
C1696     Br1701   1.930       .  S
C1697      C1698   1.413       .  A
C1698     Br1699   1.928       .  S
C1703      C1704   1.417       .  A
C1703      C1708   1.400       .  A
C1703     Br1710   1.942       .  S
C1704      C1705   1.419       .  A
C1705      C1706   1.415       .  A
C1705     Br1712   1.930       .  S
C1706      C1707   1.409       .  A
C1706     Br1711   1.927       .  S
C1707      C1708   1.413       .  A
C1708     Br1709   1.932       .  S
C1713      C1714   1.421       .  A
C1713      C1718   1.420   1_565  A
C1713     Br1720   1.929       .  S
C1714      C1715   1.413       .  A
C1715      C1716   1.425   1_565  A
C1715     Br1722   1.931       .  S
C1716      C1717   1.426       .  A
C1716     Br1721   1.929       .  S
C1717      C1718   1.423       .  A
C1718     Br1719   1.943       .  S
C1723      C1724   1.402       .  A
C1723      C1728   1.406       .  A
C1723     Br1730   1.936       .  S
C1724      C1725   1.412       .  A
C1725      C1726   1.409       .  A
C1725     Br1732   1.911       .  S
C1726      C1727   1.406       .  A
C1726     Br1731   1.931       .  S
C1727      C1728   1.425       .  A
C1728     Br1729   1.932       .  S
C1733      C1734   1.403       .  A
C1733      C1738   1.412       .  A
C1733     Br1740   1.927       .  S
C1734      C1735   1.394       .  A
C1735      C1736   1.401       .  A
C1735     Br1742   1.926       .  S
C1736      C1737   1.431       .  A
C1736     Br3613   1.942       .  S
C1737      C2465   1.502       .  S
C1737      C1738   1.422       .  A
C1738     Br1739   1.929       .  S
Br1741     C3608   1.945       .  S
C1743      C1744   1.410       .  A
C1743      C1748   1.418       .  A
C1743     Br1750   1.931       .  S
C1744      C1745   1.410       .  A
C1745      C1746   1.412       .  A
C1745     Br1752   1.926       .  S
C1746      C1747   1.411       .  A
C1746     Br1751   1.927       .  S
C1747      C1748   1.415       .  A
C1748     Br1749   1.921       .  S
C1753      C1754   1.404       .  A
C1753      C1758   1.400       .  A
C1753     Br1760   1.922       .  S
C1754      C1755   1.409       .  A
C1755      C1756   1.415       .  A
C1755     Br1762   1.919       .  S
C1756      C1757   1.412       .  A
C1756     Br1761   1.927       .  S
C1757      C1758   1.406       .  A
C1758     Br1759   1.913       .  S
C1763      C1764   1.419       .  A
C1763      C1768   1.403       .  A
C1763     Br1770   1.941       .  S
C1764      C3637   1.413       .  A
C1765      C1766   1.418   1_556  A
C1765      C3636   1.416       .  A
C1765     Br1772   1.931   1_556  S
C1766      C3639   1.416   1_554  A
C1766     Br1771   1.930       .  S
C1767      C1768   1.417       .  A
C1767      C3638   1.417       .  A
C1768     Br1769   1.943       .  S
C1773      C1774   1.423       .  A
C1773      C1778   1.415       .  A
C1773     Br1780   1.925       .  S
C1774      C1775   1.414       .  A
C1775      C1776   1.422       .  A
C1775     Br3654   1.933       .  S
C1776      C1777   1.427       .  A
C1776     Br1781   1.935       .  S
C1777      C1778   1.415       .  A
C1778     Br1779   1.938       .  S
Br1782     C3647   1.934       .  S
C1783      C1784   1.413       .  A
C1783      C1788   1.394       .  A
C1783     Br1790   1.920       .  S
C1784      C1785   1.400       .  A
C1785      C1786   1.404       .  A
C1785     Br1792   1.929       .  S
C1786      C1787   1.416       .  A
C1786     Br1791   1.929       .  S
C1787      C1788   1.399       .  A
C1788     Br1789   1.934       .  S
C1793      C1794   1.400       .  A
C1793      C1798   1.397       .  A
C1793     Br1800   1.925       .  S
C1794      C1795   1.411       .  A
C1795      C1796   1.418       .  A
C1795     Br1802   1.924       .  S
C1796      C1797   1.416       .  A
C1796     Br1801   1.926       .  S
C1797      C1798   1.416       .  A
C1798     Br1799   1.936       .  S
C1803      C1804   1.403   1_554  A
C1803      C1808   1.416       .  A
C1803     Br1810   1.926   1_545  S
C1804      C3677   1.399       .  A
C1805      C1806   1.396       .  A
C1805      C3676   1.402       .  A
C1805     Br1812   1.926       .  S
C1806      C3679   1.412       .  A
C1806     Br1811   1.925       .  S
C1807      C1808   1.426       .  A
C1807      C3678   1.419   1_554  A
C1808     Br1809   1.932       .  S
C1813      C1814   1.404       .  A
C1813      C1818   1.392       .  A
C1813     Br1820   1.919       .  S
C1814      C1815   1.406       .  A
C1815      C1816   1.414       .  A
C1815     Br1822   1.928       .  S
C1816      C1817   1.417       .  A
C1816     Br1821   1.925       .  S
C1817      C1818   1.407       .  A
C1818     Br1819   1.934       .  S
C1823      C1824   1.416       .  A
C1823      C1828   1.420       .  A
C1823     Br1830   1.938       .  S
C1824      C1825   1.425       .  A
C1825      C1826   1.424       .  A
C1825     Br1832   1.935       .  S
C1826      C1827   1.419       .  A
C1826     Br1831   1.931       .  S
C1827      C1828   1.434       .  A
C1828     Br1829   1.943       .  S
C1833      C1834   1.403       .  A
C1833      C1838   1.408       .  A
C1833     Br1840   1.920       .  S
C1834      C1835   1.398       .  A
C1835      C1836   1.405       .  A
C1835     Br1842   1.928       .  S
C1836      C1837   1.428       .  A
C1836     Br1841   1.934       .  S
C1837      C1838   1.415       .  A
C1838     Br1839   1.929       .  S
C1843      C1844   1.437       .  A
C1843      C1848   1.405       .  A
C1843     Br1850   1.929       .  S
C1844      C1845   1.415       .  A
C1845      C1846   1.411       .  A
C1845     Br1852   1.922       .  S
C1846      C1847   1.406       .  A
C1846     Br1851   1.923       .  S
C1847      C1848   1.393       .  A
C1848     Br1849   1.938       .  S
C1853      C1854   1.407   1_565  A
C1853      C1858   1.414       .  A
C1853     Br1860   1.930       .  S
C1854      C1855   1.413       .  A
C1855      C1856   1.421       .  A
C1855     Br1862   1.928       .  S
C1856      C1857   1.415   1_545  A
C1856     Br1861   1.928       .  S
C1857      C1858   1.415       .  A
C1858     Br1859   1.918       .  S
C1863      C1864   1.404       .  A
C1863      C1868   1.405       .  A
C1863     Br1870   1.918   1_565  S
C1864      C1865   1.414       .  A
C1865      C1866   1.409       .  A
C1865     Br1872   1.928       .  S
C1866      C1867   1.406       .  A
C1866     Br1871   1.929       .  S
C1867      C1868   1.408       .  A
C1868     Br1869   1.925       .  S
O1873      C1888   1.253       .  A
O1873     Al1881   1.877       .  S
C1874      O1884   1.278       .  A
C1874      O1875   1.258       .  A
C1874      C3716   1.497       .  S
O1875     Al1877   1.877       .  S
O1876      C1878   1.255       .  A
O1876     Al1877   1.889       .  S
Al1877     O1885   1.939       .  S
Al1877     O1887   1.899       .  S
Al1877     O1886   1.784       .  S
C1878      O1891   1.261       .  A
C1878      C3686   1.481       .  S
O1879      C1889   1.253       .  A
O1879     Al1881   1.906       .  S
O1880      C1893   1.280       .  A
O1880     Al1890   1.954       .  S
Al1881     O1894   1.913       .  S
Al1881     O1891   1.922       .  S
Al1881     O1886   1.789       .  S
O1882      C1889   1.256       .  A
O1882     Al1890   1.916       .  S
O1883      C1892   1.258       .  A
O1883     Al1890   1.925       .  S
O1884     Al1890   1.950       .  S
O1885      C1892   1.268       .  A
O1886     Al1890   1.793       .  S
O1887      C1888   1.261       .  A
C1888      C3709   1.487       .  S
C1889      C3736   1.482   1_545  S
C1892      C3696   1.520       .  S
C1893      O1894   1.268       .  A
C1893      C3726   1.492       .  S
O1895      C1910   1.251       .  A
O1895     Al1903   1.850       .  S
C1896      O1906   1.274       .  A
C1896      O1897   1.264       .  A
C1896      C3666   1.457       .  S
O1897     Al1899   1.887       .  S
O1898     Al1899   1.874       .  S
C1900      O1913   1.261       .  A
C1900      C3636   1.497       .  S
O1901     Al1903   1.900       .  S
O1902      C1915   1.282       .  A
Al1903     O1916   1.933       .  S
Al1903     O1913   1.918       .  S
Al1903     O1908   1.788       .  S
O1904      C1911   1.254       .  A
O1904     Al1912   1.902       .  S
O1905      C1914   1.256       .  A
O1905     Al1912   1.919       .  S
O1906     Al1912   1.923       .  S
O1909      C1910   1.261       .  A
C1910      C3656   1.467       .  S
C1911      C3676   1.468   1_565  S
C1914      C3646   1.503       .  S
C1915      O1916   1.276       .  A
C1915      C3729   1.503       .  S
O1917      C1932   1.255       .  A
O1917     Al1925   1.871       .  S
C1918      O1928   1.274       .  A
C1918      O1919   1.264       .  A
C1918      C3606   1.464       .  S
O1919     Al1921   1.889       .  S
O1920      C1922   1.252       .  A
O1920     Al1921   1.873       .  S
Al1921     O1929   1.935       .  S
Al1921     O1931   1.935       .  S
Al1921     O1930   1.780       .  S
C1922      O1935   1.259       .  A
C1922      C3579   1.484       .  S
O1923      C1933   1.252       .  A
O1923     Al1925   1.901       .  S
O1924      C1937   1.280       .  A
O1924     Al1934   1.951       .  S
Al1925     O1938   1.921       .  S
Al1925     O1935   1.921       .  S
Al1925     O1930   1.783       .  S
O1926      C1933   1.255       .  A
O1926     Al1934   1.912       .  S
O1927      C1936   1.257       .  A
O1927     Al1934   1.922       .  S
O1928     Al1934   1.929       .  S
O1929      C1936   1.266       .  A
O1930     Al1934   1.799       .  S
O1931      C1932   1.268       .  A
C1932      C3599   1.498       .  S
C1933      C3626   1.471       .  S
C1936      C3586   1.519       .  S
C1937      O1938   1.271       .  A
C1937      C3616   1.495       .  S
O1939      C1954   1.257       .  A
O1939     Al1947   1.881       .  S
C1940      O1950   1.277       .  A
C1940      O1941   1.265       .  A
O1941     Al1943   1.902       .  S
O1942      C1944   1.256       .  A
O1942     Al1943   1.887       .  S
Al1943     O1951   1.913       .  S
Al1943     O1953   1.899       .  S
Al1943     O1952   1.777       .  S
C1944      O1957   1.261       .  A
C1944      C3536   1.480       .  S
O1945      C1955   1.257       .  A
O1945     Al1947   1.922       .  S
O1946      C1959   1.277       .  A
O1946     Al1956   1.940       .  S
Al1947     O1960   1.939       .  S
Al1947     O1957   1.911       .  S
Al1947     O1952   1.790       .  S
O1948      C1955   1.256       .  A
O1948     Al1956   1.897       .  S
O1949      C1958   1.254       .  A
O1949     Al1956   1.914       .  S
O1950     Al1956   1.940       .  S
O1951      C1958   1.257       .  A
O1952     Al1956   1.787       .  S
O1953      C1954   1.259       .  A
C1954      C3546   1.469       .  S
C1955      C3566   1.501       .  S
C1958      C3649   1.514       .  S
C1959      O1960   1.273       .  A
C1959      C3619   1.494       .  S
C1962      O1972   1.273       .  A
C1962      O1963   1.264       .  A
C1962      C3506   1.469       .  S
O1963     Al1965   1.875       .  S
O1964      C1966   1.258       .  A
O1964     Al1965   1.903       .  S
Al1965     O1973   1.886       .  S
Al1965     O1975   1.932       .  S
Al1965     O1974   1.790       .  S
C1966      O1979   1.264       .  A
C1966      C3489   1.470       .  S
O1967      C1977   1.250       .  A
O1967     Al1969   1.883       .  S
O1968      C1981   1.277       .  A
O1968     Al1978   1.972       .  S
Al1969     O1982   1.897       .  S
Al1969     O1979   1.923       .  S
Al1969     O1974   1.786       .  S
O1970      C1977   1.254       .  A
O1970     Al1978   1.902       .  S
O1971      C1980   1.261       .  A
O1971     Al1978   1.928       .  S
O1972     Al1978   1.937       .  S
O1973      C1980   1.252       .  A
O1974     Al1978   1.785       .  S
O1975      C1976   1.271   1_556  A
C1977      C3526   1.491       .  S
C1980      C3589   1.522       .  S
C1981      O1982   1.263       .  A
O1983      C1998   1.257       .  A
O1983     Al1991   1.890       .  S
C1984      O1994   1.273       .  A
C1984      O1985   1.261       .  A
C1984      C3466   1.458       .  S
O1985     Al1987   1.858       .  S
O1986      C1988   1.265       .  A
O1986     Al1987   1.926       .  S
Al1987     O1995   1.902       .  S
Al1987     O1997   1.944       .  S
Al1987     O1996   1.779       .  S
C1988      O2001   1.263       .  A
C1988      C3446   1.468       .  S
O1989      C1999   1.250       .  A
O1989     Al1991   1.893       .  S
O1990      C2003   1.284       .  A
O1990     Al2000   2.014       .  S
Al1991     O2004   1.871       .  S
Al1991     O2001   1.911       .  S
Al1991     O1996   1.767       .  S
O1992      C1999   1.255       .  A
O1992     Al2000   1.909       .  S
O1993      C2002   1.268       .  A
O1993     Al2000   1.942       .  S
O1994     Al2000   1.939       .  S
O1995      C2002   1.258       .  A
O1996     Al2000   1.785       .  S
O1997      C1998   1.273       .  A
C1998      C3456   1.496       .  S
C1999      C3476   1.494       .  S
C2002      C3699   1.529       .  S
C2003      O2004   1.261       .  A
C2003      C3516   1.516       .  S
O2005      C2020   1.267       .  A
O2005     Al2013   1.918       .  S
C2006      O2016   1.255       .  A
C2006      O2007   1.279       .  A
O2007     Al2009   1.957       .  S
O2008      C2010   1.258       .  A
O2008     Al2009   1.911       .  S
Al2009     O2017   1.911       .  S
Al2009     O2019   1.942       .  S
Al2009     O2018   1.803       .  S
C2010      O2023   1.254       .  A
C2010      C3426   1.477       .  S
O2011      C2021   1.264       .  A
O2011     Al2013   1.920       .  S
O2012      C2025   1.253       .  A
O2012     Al2022   1.887       .  S
Al2013     O2026   1.860       .  S
Al2013     O2023   1.897       .  S
Al2013     O2018   1.796       .  S
O2014      C2021   1.258       .  A
O2014     Al2022   1.892       .  S
O2015      C2024   1.260       .  A
O2015     Al2022   1.915       .  S
O2016     Al2022   1.867       .  S
O2017      C2024   1.254       .  A
O2018     Al2022   1.782       .  S
O2019      C2020   1.274       .  A
C2020      C3416   1.495       .  S
C2021      C3529   1.489       .  S
C2024      C3436   1.518       .  S
C2025      O2026   1.251       .  A
C2025      C3469   1.457       .  S
O2027      C2042   1.269       .  A
O2027     Al2035   1.916       .  S
C2028      O2038   1.262       .  A
C2028      O2029   1.272       .  A
C2028      C3406   1.460       .  S
O2029     Al2031   1.924       .  S
O2030      C2032   1.258       .  A
O2030     Al2031   1.914       .  S
Al2031     O2039   1.938       .  S
Al2031     O2041   1.949       .  S
Al2031     O2040   1.799       .  S
C2032      O2045   1.252       .  A
C2032      C3449   1.468       .  S
O2033      C2043   1.258       .  A
O2033     Al2035   1.916       .  S
O2034      C2047   1.258       .  A
O2034     Al2044   1.894       .  S
Al2035     O2048   1.859       .  S
Al2035     O2045   1.892       .  S
Al2035     O2040   1.787       .  S
O2036      C2043   1.253       .  A
O2036     Al2044   1.883       .  S
O2037      C2046   1.257       .  A
O2037     Al2044   1.910       .  S
O2038     Al2044   1.880       .  S
O2039      C2046   1.259       .  A
O2040     Al2044   1.778       .  S
O2041      C2042   1.280       .  A
C2042      C3419   1.491       .  S
C2043      C3376   1.492       .  S
C2046      C3389   1.509       .  S
C2047      O2048   1.254       .  A
C2047      C3399   1.455       .  S
O2049      C2064   1.258       .  A
O2049     Al2057   1.871       .  S
C2050      O2060   1.257       .  A
C2050      O2051   1.271       .  A
C2050      C3356   1.473       .  S
O2051     Al2053   1.956       .  S
O2052      C2054   1.255       .  A
O2052     Al2053   1.891       .  S
Al2053     O2061   1.924       .  S
Al2053     O2063   1.987       .  S
Al2053     O2062   1.779       .  S
C2054      O2067   1.263       .  A
C2054      C3369   1.503       .  S
O2055      C2065   1.259       .  A
O2055     Al2057   1.901       .  S
O2056      C2069   1.260       .  A
O2056     Al2066   1.878       .  S
Al2057     O2070   1.938       .  S
Al2057     O2067   1.943       .  S
Al2057     O2062   1.789       .  S
O2058      C2065   1.263       .  A
O2058     Al2066   1.914       .  S
O2059      C2068   1.262       .  A
O2059     Al2066   1.914       .  S
O2060     Al2066   1.863       .  S
O2061      C2068   1.264       .  A
O2062     Al2066   1.773       .  S
O2063      C2064   1.279       .  A
C2065      C3326   1.468       .  S
C2068      C3386   1.503       .  S
C2069      O2070   1.269       .  A
O2071      C2086   1.270       .  A
O2071     Al2079   1.931       .  S
C2072      O2082   1.265       .  A
C2072      O2073   1.271       .  A
C2072      C3306   1.462       .  S
O2073     Al2075   1.911       .  S
O2074      C2076   1.262       .  A
O2074     Al2075   1.932       .  S
Al2075     O2083   1.911       .  S
Al2075     O2085   1.940       .  S
Al2075     O2084   1.787       .  S
C2076      O2089   1.258       .  A
C2076      C3316   1.488       .  S
O2077      C2087   1.262       .  A
O2077     Al2079   1.929       .  S
O2078      C2091   1.265       .  A
O2078     Al2088   1.922       .  S
Al2079     O2092   1.877       .  S
Al2079     O2089   1.910       .  S
Al2079     O2084   1.779       .  S
O2080      C2087   1.258       .  A
O2080     Al2088   1.894       .  S
O2081      C2090   1.266       .  A
O2081     Al2088   1.934       .  S
O2082     Al2088   1.901       .  S
O2083      C2090   1.258       .  A
O2084     Al2088   1.783       .  S
O2085      C2086   1.274       .  A
C2086      C3339   1.492       .  S
C2087      C3276   1.486       .  S
C2090      C3289   1.515       .  S
C2091      O2092   1.255       .  A
C2091      C3296   1.498       .  S
O2093      C2108   1.270       .  A
O2093     Al2101   1.919       .  S
C2094      O2104   1.264       .  A
C2094      O2095   1.272       .  A
C2094      C3259   1.461       .  S
O2095     Al2097   1.924       .  S
O2096      C2098   1.257       .  A
O2096     Al2097   1.895       .  S
Al2097     O2105   1.913       .  S
Al2097     O2107   1.967       .  S
Al2097     O2106   1.797       .  S
C2098      O2111   1.255       .  A
C2098      C3689   1.488       .  S
O2099      C2109   1.255       .  A
O2099     Al2101   1.906       .  S
O2100      C2113   1.262       .  A
O2100     Al2110   1.891       .  S
Al2101     O2114   1.884       .  S
Al2101     O2111   1.917       .  S
Al2101     O2106   1.793       .  S
O2102      C2109   1.255       .  A
O2102     Al2110   1.889       .  S
O2103      C2112   1.259       .  A
O2103     Al2110   1.919       .  S
O2104     Al2110   1.885       .  S
O2105      C2112   1.255       .  A
O2106     Al2110   1.785       .  S
O2107      C2108   1.281       .  A
C2108      C3266   1.504       .  S
C2109      C3239   1.486       .  S
C2112      C3286   1.521       .  S
C2113      O2114   1.260       .  A
C2113      C3246   1.472       .  S
O2115      C2130   1.273       .  A
O2115     Al2123   1.917       .  S
C2116      O2126   1.263       .  A
C2116      O2117   1.272       .  A
C2116      C3706   1.460       .  S
O2117     Al2119   1.920   1_556  S
O2118      C2120   1.251       .  A
O2118     Al2119   1.902       .  S
C2120      C3229   1.483       .  S
O2121      C2131   1.253       .  A
O2121     Al2123   1.884       .  S
O2122      C2135   1.255       .  A
O2122     Al2132   1.882       .  S
Al2123     O2136   1.898       .  S
Al2123     O2133   1.920       .  S
Al2123     O2128   1.782       .  S
O2124      C2131   1.254       .  A
O2124     Al2132   1.886       .  S
O2125      C2134   1.252       .  A
O2125     Al2132   1.914       .  S
O2127      C2134   1.258       .  A
O2128     Al2132   1.788       .  S
O2129      C2130   1.290       .  A
C2130      C3269   1.521       .  S
C2131      C3679   1.478       .  S
C2135      O2136   1.261       .  A
C2135      C3719   1.462       .  S
O2137      C2152   1.256       .  A
O2137     Al2145   1.876       .  S
C2138      O2148   1.271       .  A
C2138      O2139   1.262       .  A
C2138      C3209   1.463       .  S
O2139     Al2141   1.867       .  S
O2140      C2142   1.264       .  A
O2140     Al2141   1.924       .  S
Al2141     O2149   1.908       .  S
Al2141     O2151   1.942       .  S
Al2141     O2150   1.787       .  S
C2142      O2155   1.269       .  A
C2142      C3166   1.483       .  S
O2143      C2153   1.249       .  A
O2143     Al2145   1.884       .  S
O2144      C2157   1.277       .  A
O2144     Al2154   1.969       .  S
Al2145     O2158   1.889       .  S
Al2145     O2155   1.931       .  S
Al2145     O2150   1.784       .  S
O2146      C2153   1.254       .  A
O2146     Al2154   1.908       .  S
O2147      C2156   1.260       .  A
O2147     Al2154   1.926       .  S
O2148     Al2154   1.934       .  S
O2149      C2156   1.257       .  A
O2150     Al2154   1.786       .  S
O2151      C2152   1.273       .  A
C2152      C3196   1.490       .  S
C2153      C3216   1.499       .  S
C2156      C3176   1.527       .  S
C2157      O2158   1.265       .  A
C2157      C3189   1.500       .  S
C2160      O2170   1.266       .  A
C2160      O2161   1.253       .  A
C2160      C3136   1.460       .  S
O2161     Al2163   1.850       .  S
O2162      C2164   1.268       .  A
O2162     Al2163   1.931       .  S
Al2163     O2171   1.924       .  S
Al2163     O2173   1.878       .  S
Al2163     O2172   1.778       .  S
C2164      O2177   1.263       .  A
C2164      C3116   1.478       .  S
O2165      C2175   1.262       .  A
O2165     Al2167   1.933       .  S
O2166      C2179   1.275       .  A
O2166     Al2176   1.970       .  S
Al2167     O2180   1.903       .  S
Al2167     O2177   1.908       .  S
Al2167     O2172   1.788       .  S
O2168      C2175   1.258       .  A
O2168     Al2176   1.906       .  S
O2169      C2178   1.264       .  A
O2169     Al2176   1.918       .  S
O2170     Al2176   1.942       .  S
O2171      C2178   1.267       .  A
O2172     Al2176   1.778       .  S
O2173      C2174   1.258       .  A
C2175      C3146   1.500       .  S
C2178      C3156   1.507       .  S
C2179      O2180   1.267       .  A
O2181      C2196   1.257       .  A
O2181     Al2189   1.872       .  S
C2182      O2192   1.274       .  A
C2182      O2183   1.267       .  A
C2182      C3096   1.460       .  S
O2183     Al2185   1.898       .  S
O2184      C2186   1.254       .  A
O2184     Al2185   1.884       .  S
Al2185     O2193   1.928       .  S
Al2185     O2195   1.915       .  S
Al2185     O2194   1.772       .  S
C2186      O2199   1.265       .  A
C2186      C3076   1.505       .  S
O2187      C2197   1.260       .  A
O2187     Al2189   1.931       .  S
O2188      C2201   1.279       .  A
O2188     Al2198   1.939       .  S
Al2189     O2202   1.948       .  S
Al2189     O2199   1.954       .  S
Al2189     O2194   1.783       .  S
O2190      C2197   1.256       .  A
O2190     Al2198   1.900       .  S
O2191      C2200   1.255       .  A
O2191     Al2198   1.920       .  S
O2192     Al2198   1.919       .  S
O2193      C2200   1.261       .  A
O2194     Al2198   1.788       .  S
O2195      C2196   1.265       .  A
C2196      C3089   1.488       .  S
C2197      C3236   1.497   1_655  S
C2200      C3179   1.516       .  S
C2201      O2202   1.277       .  A
C2201      C3109   1.493       .  S
O2203      C2218   1.264       .  A
O2203     Al2211   1.891       .  S
C2204      O2214   1.273       .  A
C2204      O2205   1.260       .  A
C2204      C3249   1.465       .  S
O2205     Al2207   1.857       .  S
O2206     Al2207   1.921       .  S
C2208      O2221   1.270       .  A
C2208      C3226   1.480       .  S
O2209     Al2211   1.916       .  S
O2210      C2223   1.277       .  A
Al2211     O2224   1.889       .  S
Al2211     O2221   1.941       .  S
Al2211     O2216   1.785       .  S
O2212      C2219   1.253       .  A
O2212     Al2220   1.910       .  S
O2213      C2222   1.257       .  A
O2213     Al2220   1.923       .  S
O2214     Al2220   1.941       .  S
O2217      C2218   1.273       .  A
C2218      C3256   1.484       .  S
C2219      C3066   1.512   1_455  S
C2222      C3059   1.527       .  S
C2223      O2224   1.262       .  A
C2223      C3106   1.496       .  S
O2225      C2240   1.257       .  A
O2225     Al2233   1.859       .  S
C2226      O2236   1.274       .  A
C2226      O2227   1.267       .  A
C2226      C3036   1.459       .  S
O2227     Al2229   1.893       .  S
O2228      C2230   1.250       .  A
O2228     Al2229   1.877       .  S
Al2229     O2237   1.908       .  S
Al2229     O2239   1.911       .  S
Al2229     O2238   1.771       .  S
C2230      O2243   1.261       .  A
C2230      C3016   1.498       .  S
O2231      C2241   1.255       .  A
O2231     Al2233   1.916       .  S
O2232      C2245   1.284       .  A
O2232     Al2242   1.949       .  S
Al2233     O2246   1.950       .  S
Al2233     O2243   1.933       .  S
Al2233     O2238   1.787       .  S
O2234      C2241   1.257       .  A
O2234     Al2242   1.906       .  S
O2235      C2244   1.257       .  A
O2235     Al2242   1.937       .  S
O2236     Al2242   1.923       .  S
O2237      C2244   1.255       .  A
O2238     Al2242   1.793       .  S
O2239      C2240   1.265       .  A
C2240      C3029   1.467       .  S
C2241      C3279   1.489       .  S
C2244      C3159   1.514       .  S
C2245      O2246   1.277       .  A
C2245      C3046   1.503       .  S
O2247      C2262   1.251       .  A
O2247     Al2255   1.858       .  S
C2248      O2258   1.274       .  A
C2248      O2249   1.261       .  A
C2248      C3299   1.466       .  S
O2249     Al2251   1.872       .  S
O2250      C2252   1.249       .  A
O2250     Al2251   1.863       .  S
Al2251     O2259   1.931       .  S
Al2251     O2261   1.929       .  S
Al2251     O2260   1.780       .  S
C2252      O2265   1.260       .  A
C2252      C3366   1.491       .  S
O2253      C2263   1.254       .  A
O2253     Al2255   1.894       .  S
O2254      C2267   1.280       .  A
O2254     Al2264   1.959       .  S
Al2255     O2268   1.918       .  S
Al2255     O2265   1.945       .  S
Al2255     O2260   1.789       .  S
O2256      C2263   1.259       .  A
O2256     Al2264   1.916       .  S
O2257      C2266   1.257       .  A
O2257     Al2264   1.922       .  S
O2258     Al2264   1.933       .  S
O2259      C2266   1.265       .  A
O2260     Al2264   1.796       .  S
O2261      C2262   1.269       .  A
C2262      C3309   1.490       .  S
C2263      C3006   1.470       .  S
C2266      C3056   1.521       .  S
C2267      O2268   1.268       .  A
C2267      C3049   1.495       .  S
O2269      C2284   1.275       .  A
O2269     Al2277   1.933       .  S
C2270      O2280   1.262       .  A
C2270      O2271   1.285       .  A
C2270      C3129   1.502       .  S
O2271     Al2273   1.958       .  S
O2272      C2274   1.249       .  A
O2272     Al2273   1.898       .  S
Al2273     O2281   1.902       .  S
Al2273     O2283   1.968       .  S
Al2273     O2282   1.800       .  S
C2274      O2287   1.244       .  A
C2274      C2999   1.470       .  S
O2275      C2285   1.262       .  A
O2275     Al2277   1.916       .  S
O2276      C2289   1.264       .  A
O2276     Al2286   1.913       .  S
Al2277     O2290   1.838       .  S
Al2277     O2287   1.889       .  S
Al2277     O2282   1.789       .  S
O2278      C2285   1.255       .  A
O2278     Al2286   1.887       .  S
O2279      C2288   1.261       .  A
O2279     Al2286   1.932       .  S
O2280     Al2286   1.868       .  S
O2281      C2288   1.248       .  A
O2282     Al2286   1.790       .  S
O2283      C2284   1.286       .  A
C2284      C2986   1.514       .  S
C2285      C3219   1.494       .  S
C2288      C2976   1.507       .  S
C2289      O2290   1.248       .  A
C2289      C3139   1.470       .  S
O2291      C2306   1.269       .  A
O2291     Al2299   1.929       .  S
C2292      O2302   1.262       .  A
C2292      O2293   1.275       .  A
O2293     Al2295   1.942       .  S
O2294      C2296   1.259       .  A
O2294     Al2295   1.917       .  S
Al2295     O2303   1.929       .  S
Al2295     O2305   1.969       .  S
Al2295     O2304   1.799       .  S
C2296      O2309   1.258       .  A
C2296      C3119   1.478       .  S
O2297      C2307   1.263       .  A
O2297     Al2299   1.952       .  S
O2298      C2311   1.265       .  A
O2298     Al2308   1.913       .  S
Al2299     O2312   1.868       .  S
Al2299     O2309   1.908       .  S
Al2299     O2304   1.784       .  S
O2300      C2307   1.251       .  A
O2300     Al2308   1.872       .  S
O2301      C2310   1.264       .  A
O2301     Al2308   1.923       .  S
O2302     Al2308   1.876       .  S
O2303      C2310   1.259       .  A
O2304     Al2308   1.781       .  S
O2305      C2306   1.281       .  A
C2306      C2989   1.508       .  S
C2307      C2936   1.508       .  S
C2310      C2966   1.514       .  S
C2311      O2312   1.254       .  A
C2311      C2946   1.483       .  S
O2313      C2328   1.263       .  A
O2313     Al2321   1.890       .  S
C2314      O2324   1.261       .  A
C2314      O2315   1.271       .  A
C2314      C2929   1.459       .  S
O2315     Al2317   1.949   1_556  S
O2316      C2318   1.253   1_556  A
O2316     Al2317   1.891   1_556  S
C2318      C3639   1.497   1_654  S
O2319      C2329   1.263       .  A
O2319     Al2321   1.915       .  S
O2320      C2333   1.262       .  A
O2320     Al2330   1.879       .  S
Al2321     O2334   1.928       .  S
Al2321     O2331   1.929       .  S
Al2321     O2326   1.788       .  S
O2322      C2329   1.263       .  A
O2322     Al2330   1.917       .  S
O2323      C2332   1.262       .  A
O2323     Al2330   1.913       .  S
O2325      C2332   1.263       .  A
O2326     Al2330   1.781       .  S
O2327      C2328   1.278       .  A
C2328      C2906   1.521       .  S
C2329      C2899   1.479       .  S
C2333      O2334   1.268       .  A
C2333      C2916   1.460       .  S
O2335      C2350   1.265       .  A
O2335     Al2343   1.889       .  S
C2336      O2346   1.257       .  A
C2336      O2337   1.267       .  A
C2336      C3659   1.461       .  S
O2337     Al2339   1.908       .  S
O2338      C2340   1.248       .  A
O2338     Al2339   1.894       .  S
Al2339     O2347   1.911       .  S
Al2339     O2349   1.988       .  S
Al2339     O2348   1.777       .  S
C2340      O2353   1.249       .  A
C2340      C2876   1.490   1_455  S
O2341      C2351   1.269       .  A
O2341     Al2343   1.919       .  S
O2342      C2355   1.272       .  A
O2342     Al2352   1.940       .  S
Al2343     O2356   1.863       .  S
Al2343     O2353   1.894       .  S
Al2343     O2348   1.787       .  S
O2344      C2351   1.268       .  A
O2344     Al2352   1.933       .  S
O2345      C2354   1.264       .  A
O2345     Al2352   1.935       .  S
O2346     Al2352   1.860       .  S
O2347      C2354   1.261       .  A
O2348     Al2352   1.794       .  S
O2349      C2350   1.283       .  A
C2350      C2909   1.506       .  S
C2351      C3739   1.478       .  S
C2354      C2886   1.511       .  S
C2355      O2356   1.254       .  A
C2355      C3669   1.484       .  S
O2357      C2372   1.266       .  A
O2357     Al2365   1.884       .  S
C2358      O2368   1.256       .  A
C2358      O2359   1.268       .  A
C2358      C3026   1.467       .  S
O2359     Al2361   1.918       .  S
O2360      C2362   1.247       .  A
O2360     Al2361   1.897       .  S
Al2361     O2369   1.896       .  S
Al2361     O2371   1.993       .  S
Al2361     O2370   1.765       .  S
C2362      O2375   1.249       .  A
C2362      C3539   1.490       .  S
O2363      C2373   1.271       .  A
O2363     Al2365   1.912       .  S
O2364      C2377   1.271       .  A
O2364     Al2374   1.946       .  S
Al2365     O2378   1.871       .  S
Al2365     O2375   1.910       .  S
Al2365     O2370   1.786       .  S
O2366      C2373   1.273       .  A
O2366     Al2374   1.939       .  S
O2367      C2376   1.267       .  A
O2367     Al2374   1.944       .  S
O2368     Al2374   1.862       .  S
O2369      C2376   1.257       .  A
O2370     Al2374   1.784       .  S
O2371      C2372   1.285       .  A
C2373      C3009   1.472       .  S
C2376      C2979   1.505       .  S
C2377      O2378   1.253       .  A
O2379      C2394   1.267       .  A
O2379     Al2387   1.881       .  S
C2380      O2390   1.249       .  A
C2380      O2381   1.270       .  A
C2380      C3549   1.468       .  S
O2381     Al2383   1.938       .  S
O2382      C2384   1.248       .  A
O2382     Al2383   1.893       .  S
Al2383     O2391   1.912       .  S
Al2383     O2393   1.998       .  S
Al2383     O2392   1.770       .  S
C2384      O2397   1.257       .  A
C2384      C3019   1.501       .  S
O2385      C2395   1.267       .  A
O2385     Al2387   1.909       .  S
O2386      C2399   1.266       .  A
O2386     Al2396   1.914       .  S
Al2387     O2400   1.931       .  S
Al2387     O2397   1.940       .  S
Al2387     O2392   1.793       .  S
O2388      C2395   1.273       .  A
O2388     Al2396   1.939       .  S
O2389      C2398   1.269       .  A
O2389     Al2396   1.957       .  S
O2390     Al2396   1.831       .  S
O2391      C2398   1.260       .  A
O2392     Al2396   1.783       .  S
O2393      C2394   1.286       .  A
C2394      C2869   1.517       .  S
C2395      C3629   1.479       .  S
C2398      C2889   1.517       .  S
C2399      O2400   1.265       .  A
C2399      C3556   1.487       .  S
O2401      C2416   1.269       .  A
O2401     Al2409   1.918       .  S
C2402      O2412   1.263       .  A
C2402      O2403   1.275       .  A
C2402      C3086   1.472       .  S
O2403     Al2405   1.934   1_556  S
O2404      C2406   1.261       .  A
O2404     Al2405   1.933       .  S
C2406      C2859   1.484   1_545  S
O2407      C2417   1.268       .  A
O2407     Al2409   1.947       .  S
O2408      C2421   1.264       .  A
O2408     Al2418   1.923       .  S
Al2409     O2422   1.868       .  S
Al2409     O2419   1.915       .  S
Al2409     O2414   1.775       .  S
O2410      C2417   1.261       .  A
O2410     Al2418   1.900       .  S
O2411      C2420   1.265       .  A
O2411     Al2418   1.932       .  S
O2413      C2420   1.260       .  A
O2414     Al2418   1.782       .  S
O2415      C2416   1.274       .  A
C2416      C2849   1.486       .  S
C2417      C3069   1.501       .  S
C2421      O2422   1.249       .  A
C2421      C3099   1.493       .  S
O2423      C2438   1.261       .  A
O2423     Al2431   1.879       .  S
C2424      O2434   1.254       .  A
C2424      O2425   1.270       .  A
C2424      C2816   1.478       .  S
O2425     Al2427   1.940       .  S
O2426      C2428   1.252       .  A
O2426     Al2427   1.893       .  S
Al2427     O2435   1.918       .  S
Al2427     O2437   1.991       .  S
Al2427     O2436   1.770       .  S
C2428      O2441   1.266       .  A
C2428      C3079   1.509   1_565  S
O2429      C2439   1.262       .  A
O2429     Al2431   1.896       .  S
O2430      C2443   1.265       .  A
O2430     Al2440   1.905       .  S
Al2431     O2444   1.942       .  S
Al2431     O2441   1.965       .  S
Al2431     O2436   1.790       .  S
O2432      C2439   1.268       .  A
O2432     Al2440   1.927       .  S
O2433      C2442   1.268       .  A
O2433     Al2440   1.958       .  S
O2434     Al2440   1.865       .  S
O2435      C2442   1.264       .  A
O2436     Al2440   1.780       .  S
O2437      C2438   1.282       .  A
C2438      C2846   1.512       .  S
C2439      C2796   1.467       .  S
C2442      C2829   1.511       .  S
C2443      O2444   1.269       .  A
C2443      C2806   1.479       .  S
O2445      C2460   1.279       .  A
O2445     Al2453   1.945       .  S
C2446      O2456   1.276       .  A
C2446      O2447   1.284       .  A
C2446      C3596   1.480       .  S
O2447     Al2449   1.933       .  S
O2448      C2450   1.249       .  A
O2448     Al2449   1.891       .  S
Al2449     O2457   1.910       .  S
Al2449     O2459   1.957       .  S
Al2449     O2458   1.781       .  S
C2450      O2463   1.253       .  A
C2450      C2789   1.500       .  S
O2451      C2461   1.262       .  A
O2451     Al2453   1.921       .  S
O2452      C2465   1.268       .  A
O2452     Al2462   1.936       .  S
Al2453     O2466   1.850       .  S
Al2453     O2463   1.923       .  S
Al2453     O2458   1.783       .  S
O2454      C2461   1.255       .  A
O2454     Al2462   1.886       .  S
O2455      C2464   1.256       .  A
O2455     Al2462   1.927       .  S
O2456     Al2462   1.924       .  S
O2457      C2464   1.248       .  A
O2458     Al2462   1.777       .  S
O2459      C2460   1.288       .  A
C2461      C3569   1.501       .  S
C2464      C2766   1.524       .  S
C2465      O2466   1.251       .  A
O2467      C2482   1.266       .  A
O2467     Al2475   1.895       .  S
C2468      O2478   1.257       .  A
C2468      O2469   1.265       .  A
C2468      C2756   1.450       .  S
O2469     Al2471   1.903       .  S
O2470      C2472   1.245       .  A
O2470     Al2471   1.881       .  S
Al2471     O2479   1.894       .  S
Al2471     O2481   1.974       .  S
Al2471     O2480   1.769       .  S
C2472      O2485   1.253       .  A
C2472      C3576   1.493       .  S
O2473      C2483   1.273       .  A
O2473     Al2475   1.932       .  S
O2474      C2487   1.271       .  A
O2474     Al2484   1.933       .  S
Al2475     O2488   1.876       .  S
Al2475     O2485   1.919       .  S
Al2475     O2480   1.786       .  S
O2476      C2483   1.271       .  A
O2476     Al2484   1.945       .  S
O2477      C2486   1.265       .  A
O2477     Al2484   1.945       .  S
O2478     Al2484   1.853       .  S
O2479      C2486   1.255       .  A
O2480     Al2484   1.790       .  S
O2481      C2482   1.279       .  A
C2482      C2776   1.502       .  S
C2483      C2736   1.490       .  S
C2486      C2826   1.508       .  S
C2487      O2488   1.257       .  A
C2487      C2746   1.483       .  S
O2489      C2504   1.276       .  A
O2489     Al2497   1.933       .  S
C2490      O2500   1.267       .  A
C2490      O2491   1.277       .  A
C2490      C3499   1.459       .  S
O2491     Al2493   1.925       .  S
O2492      C2494   1.253       .  A
O2492     Al2493   1.908       .  S
Al2493     O2501   1.933       .  S
Al2493     O2503   1.953       .  S
Al2493     O2502   1.799       .  S
C2494      O2507   1.253       .  A
C2494      C3169   1.481       .  S
O2495      C2505   1.262       .  A
O2495     Al2497   1.926       .  S
O2496      C2509   1.263       .  A
O2496     Al2506   1.912       .  S
Al2497     O2510   1.863       .  S
Al2497     O2507   1.913       .  S
Al2497     O2502   1.790       .  S
O2498      C2505   1.251       .  A
O2498     Al2506   1.871       .  S
O2499      C2508   1.257       .  A
O2499     Al2506   1.918       .  S
O2500     Al2506   1.886       .  S
O2501      C2508   1.256       .  A
O2502     Al2506   1.783       .  S
O2503      C2504   1.285       .  A
C2504      C2726   1.501       .  S
C2505      C3479   1.499       .  S
C2508      C2769   1.522       .  S
C2509      O2510   1.255       .  A
C2509      C3509   1.472       .  S
O2511      C2526   1.272       .  A
O2511     Al2519   1.930       .  S
C2512      O2522   1.267       .  A
C2512      O2513   1.272       .  A
O2513     Al2515   1.911       .  S
O2514      C2516   1.258       .  A
O2514     Al2515   1.915       .  S
Al2515     O2523   1.931       .  S
Al2515     O2525   1.947       .  S
Al2515     O2524   1.799       .  S
C2516      O2529   1.255       .  A
C2516      C3486   1.473       .  S
O2517      C2527   1.262       .  A
O2517     Al2519   1.930       .  S
O2518      C2531   1.260       .  A
O2518     Al2528   1.893       .  S
Al2519     O2532   1.857       .  S
Al2519     O2529   1.902       .  S
Al2519     O2524   1.790       .  S
O2520      C2527   1.257       .  A
O2520     Al2528   1.896       .  S
O2521      C2530   1.256       .  A
O2521     Al2528   1.916       .  S
O2522     Al2528   1.896       .  S
O2523      C2530   1.257       .  A
O2524     Al2528   1.777       .  S
O2525      C2526   1.279       .  A
C2526      C2729   1.496       .  S
C2527      C3149   1.499       .  S
C2530      C2839   1.520       .  S
C2531      O2532   1.253       .  A
C2531      C3206   1.460       .  S
O2533      C2548   1.252       .  A
O2533     Al2541   1.870       .  S
C2534      O2544   1.282       .  A
C2534      O2535   1.251       .  A
C2534      C2919   1.503       .  S
O2535     Al2537   1.856       .  S
O2536      C2538   1.257       .  A
O2536     Al2537   1.889       .  S
Al2537     O2545   1.917       .  S
Al2537     O2547   1.883       .  S
Al2537     O2546   1.779       .  S
C2538      O2551   1.259       .  A
C2538      C2879   1.482       .  S
O2539      C2549   1.250       .  A
O2539     Al2541   1.890       .  S
O2540      C2553   1.278       .  A
O2540     Al2550   1.953       .  S
Al2541     O2554   1.909       .  S
Al2541     O2551   1.904       .  S
Al2541     O2546   1.789       .  S
O2542      C2549   1.257       .  A
O2542     Al2550   1.916       .  S
O2543      C2552   1.254       .  A
O2543     Al2550   1.917       .  S
O2544     Al2550   1.959       .  S
O2545      C2552   1.260       .  A
O2546     Al2550   1.807       .  S
O2547      C2548   1.255       .  A
C2548      C2926   1.471       .  S
C2549      C2799   1.475       .  S
C2552      C2706   1.522       .  S
C2553      O2554   1.267       .  A
C2553      C2716   1.496       .  S
O2555      C2570   1.260       .  A
O2555     Al2563   1.905       .  S
C2556      O2566   1.278       .  A
C2556      O2557   1.259       .  A
C2556      C2809   1.491       .  S
O2557     Al2559   1.865       .  S
O2558     Al2559   1.925       .  S
C2560      O2573   1.261       .  A
C2560      C2856   1.476   1_556  S
O2561     Al2563   1.882       .  S
O2562      C2575   1.278       .  A
Al2563     O2576   1.901       .  S
Al2563     O2573   1.908       .  S
Al2563     O2568   1.790       .  S
O2564      C2571   1.264       .  A
O2564     Al2572   1.930       .  S
O2565      C2574   1.262       .  A
O2565     Al2572   1.939       .  S
O2566     Al2572   1.978       .  S
O2569      C2570   1.260       .  A
C2570      C2819   1.465       .  S
C2571      C2896   1.490       .  S
C2574      C2699   1.512       .  S
C2575      O2576   1.266       .  A
C2575      C2719   1.515       .  S
O2577      C2592   1.273       .  A
O2577     Al2585   1.941       .  S
C2578      O2588   1.277       .  A
C2578      O2579   1.245       .  A
C2578      C3349   1.504       .  S
O2579     Al2581   1.844       .  S
O2580      C2582   1.259       .  A
O2580     Al2581   1.915       .  S
Al2581     O2589   1.916       .  S
Al2581     O2591   1.877       .  S
Al2581     O2590   1.761       .  S
C2582      O2595   1.261       .  A
C2582      C3319   1.480       .  S
O2583      C2593   1.261       .  A
O2583     Al2585   1.917       .  S
O2584      C2597   1.281       .  A
O2584     Al2594   1.990       .  S
Al2585     O2598   1.898       .  S
Al2585     O2595   1.932       .  S
Al2585     O2590   1.777       .  S
O2586      C2593   1.265       .  A
O2586     Al2594   1.915       .  S
O2587      C2596   1.273       .  A
O2587     Al2594   1.937       .  S
O2588     Al2594   2.006       .  S
O2589      C2596   1.255       .  A
O2590     Al2594   1.792       .  S
O2591      C2592   1.260       .  A
C2592      C3359   1.461       .  S
C2593      C2739   1.501       .  S
C2596      C2676   1.526       .  S
C2597      O2598   1.266       .  A
C2597      C2686   1.517       .  S
O2599      C2614   1.251       .  A
O2599     Al2607   1.846       .  S
C2600      O2610   1.273       .  A
C2600      O2601   1.266       .  A
C2600      C2749   1.455       .  S
O2601     Al2603   1.890       .  S
O2602      C2604   1.254       .  A
O2602     Al2603   1.886       .  S
Al2603     O2611   1.916       .  S
Al2603     O2613   1.905       .  S
Al2603     O2612   1.778       .  S
C2604      O2617   1.260       .  A
C2604      C2786   1.495       .  S
O2605      C2615   1.250       .  A
O2605     Al2607   1.894       .  S
O2606      C2619   1.281       .  A
O2606     Al2616   1.947       .  S
Al2607     O2620   1.932       .  S
Al2607     O2617   1.920       .  S
Al2607     O2612   1.783       .  S
O2608      C2615   1.257       .  A
O2608     Al2616   1.924       .  S
O2609      C2618   1.259       .  A
O2609     Al2616   1.946       .  S
O2610     Al2616   1.916       .  S
O2611      C2618   1.258       .  A
O2612     Al2616   1.801       .  S
O2613      C2614   1.262       .  A
C2614      C2759   1.459       .  S
C2615      C3329   1.473       .  S
C2618      C2696   1.518       .  S
C2619      O2620   1.274       .  A
C2619      C2689   1.499       .  S
O2621      C2636   1.260       .  A
O2621     Al2629   1.874       .  S
C2622      O2632   1.278       .  A
C2622      O2623   1.279       .  A
C2622      C2949   1.455       .  S
O2623     Al2625   1.915       .  S
O2624      C2626   1.253       .  A
O2624     Al2625   1.893       .  S
Al2625     O2633   1.917       .  S
Al2625     O2635   1.935       .  S
Al2625     O2634   1.781       .  S
C2626      O2639   1.253       .  A
C2626      C2996   1.473       .  S
O2627      C2637   1.252       .  A
O2627     Al2629   1.929       .  S
O2628      C2641   1.286       .  A
O2628     Al2638   1.958       .  S
Al2629     O2642   1.891       .  S
Al2629     O2639   1.889       .  S
Al2629     O2634   1.770       .  S
O2630      C2637   1.247       .  A
O2630     Al2638   1.887       .  S
O2631      C2640   1.248       .  A
O2631     Al2638   1.891       .  S
O2632     Al2638   1.907       .  S
O2633      C2640   1.253       .  A
O2634     Al2638   1.791       .  S
O2635      C2636   1.272       .  A
C2636      C2959   1.487       .  S
C2637      C3379   1.503       .  S
C2640      C2709   1.512       .  S
C2641      O2642   1.271       .  A
C2641      C2666   1.510       .  S
C2644      O2654   1.272       .  A
C2644      O2645   1.263       .  A
C2644      C3396   1.450       .  S
O2645     Al2647   1.856       .  S
O2646      C2648   1.262       .  A
O2646     Al2647   1.927       .  S
Al2647     O2655   1.899       .  S
Al2647     O2657   1.925       .  S
Al2647     O2656   1.790       .  S
C2648      O2661   1.261       .  A
C2648      C3429   1.474       .  S
O2649      C2659   1.253       .  A
O2649     Al2651   1.901       .  S
O2650      C2663   1.272       .  A
O2650     Al2660   1.968       .  S
Al2651     O2664   1.861       .  S
Al2651     O2661   1.910       .  S
Al2651     O2656   1.776       .  S
O2652      C2659   1.255       .  A
O2652     Al2660   1.906       .  S
O2653      C2662   1.257       .  A
O2653     Al2660   1.917       .  S
O2654     Al2660   1.929       .  S
O2655      C2662   1.257       .  A
O2656     Al2660   1.793       .  S
O2657      C2658   1.271       .  A
C2659      C2939   1.498       .  S
C2662      C2679   1.508       .  S
C2663      O2664   1.260       .  A
C2665      C2666   1.421       .  A
C2665      C2670   1.385       .  A
C2665     Br2672   1.946       .  S
C2666      C2667   1.426       .  A
C2667      C2668   1.435       .  A
C2667     Br2674   1.924       .  S
C2668      C2669   1.415       .  A
C2668     Br2673   1.921       .  S
C2669      C2670   1.406       .  A
C2675      C2676   1.437       .  A
C2675      C2680   1.412       .  A
C2675     Br2682   1.936       .  S
C2676      C2677   1.422       .  A
C2677      C2678   1.425       .  A
C2677     Br2684   1.934       .  S
C2678      C2679   1.422       .  A
C2678     Br2683   1.930       .  S
C2679      C2680   1.404       .  A
C2680     Br2681   1.939       .  S
C2685      C2686   1.419       .  A
C2685      C2690   1.422       .  A
C2685     Br2692   1.930       .  S
C2686      C2687   1.420       .  A
C2687      C2688   1.416       .  A
C2687     Br2694   1.917       .  S
C2688      C2689   1.407       .  A
C2688     Br2693   1.931       .  S
C2689      C2690   1.413       .  A
C2690     Br2691   1.926       .  S
C2695      C2696   1.424       .  A
C2695      C2700   1.410       .  A
C2695     Br2702   1.924       .  S
C2696      C2697   1.420       .  A
C2697      C2698   1.428       .  A
C2697     Br2704   1.930       .  S
C2698      C2699   1.421       .  A
C2698     Br2703   1.928       .  S
C2699      C2700   1.409       .  A
C2705      C2706   1.428       .  A
C2705      C2710   1.420       .  A
C2705     Br2712   1.936       .  S
C2706      C2707   1.422       .  A
C2707      C2708   1.420       .  A
C2707     Br2714   1.940       .  S
C2708      C2709   1.421       .  A
C2708     Br2713   1.932       .  S
C2709      C2710   1.414       .  A
C2710     Br2711   1.935       .  S
C2715      C2716   1.413       .  A
C2715      C2720   1.419       .  A
C2715     Br2722   1.928       .  S
C2716      C2717   1.406       .  A
C2717      C2718   1.418       .  A
C2717     Br2724   1.932       .  S
C2718      C2719   1.423       .  A
C2718     Br2723   1.920       .  S
C2719      C2720   1.420       .  A
C2720     Br2721   1.933       .  S
C2725      C2726   1.412       .  A
C2725      C2730   1.419       .  A
C2725     Br2732   1.928       .  S
C2726      C2727   1.415       .  A
C2727      C2728   1.415       .  A
C2727     Br2734   1.919       .  S
C2728      C2729   1.408       .  A
C2728     Br2733   1.930       .  S
C2729      C2730   1.414       .  A
C2730     Br2731   1.923       .  S
C2735      C2736   1.409       .  A
C2735      C2740   1.415       .  A
C2735     Br2742   1.927       .  S
C2736      C2737   1.410       .  A
C2737      C2738   1.413       .  A
C2737     Br2744   1.927       .  S
C2738      C2739   1.414       .  A
C2738     Br2743   1.932       .  S
C2739      C2740   1.422       .  A
C2740     Br2741   1.935       .  S
C2745      C2746   1.423       .  A
C2745     Br2752   1.939       .  S
C2746      C2747   1.417       .  A
C2747      C2748   1.412       .  A
C2747     Br2754   1.930       .  S
C2748     Br2753   1.925       .  S
C2749      C2750   1.396       .  A
C2750     Br2751   1.927       .  S
C2755      C2756   1.396       .  A
C2755      C2760   1.393       .  A
C2755     Br2762   1.939       .  S
C2756      C2757   1.413       .  A
C2757      C2758   1.402       .  A
C2757     Br2764   1.927       .  S
C2758      C2759   1.401       .  A
C2758     Br2763   1.930       .  S
C2759      C2760   1.419       .  A
C2760     Br2761   1.925       .  S
C2765      C2766   1.418   1_545  A
C2765      C2770   1.420       .  A
C2765     Br2772   1.937   1_545  S
C2766      C2767   1.425       .  A
C2767      C2768   1.424   1_565  A
C2767     Br2774   1.933       .  S
C2768      C2769   1.417       .  A
C2768     Br2773   1.931       .  S
C2769      C2770   1.426       .  A
C2770     Br2771   1.927       .  S
C2775      C2776   1.417       .  A
C2775      C2780   1.416       .  A
C2775     Br2782   1.929       .  S
C2776      C2777   1.414       .  A
C2777      C2778   1.417       .  A
C2777     Br2784   1.925       .  S
C2778      C2779   1.411       .  A
C2778     Br2783   1.926       .  S
C2779      C2780   1.408       .  A
C2785      C2786   1.415       .  A
C2785      C2790   1.420       .  A
C2785     Br2792   1.928       .  S
C2786      C2787   1.418       .  A
C2787      C2788   1.402       .  A
C2787     Br2794   1.934       .  S
C2788      C2789   1.413       .  A
C2788     Br2793   1.941       .  S
C2789      C2790   1.419       .  A
C2790     Br2791   1.929       .  S
C2795      C2796   1.410       .  A
C2795      C2800   1.410       .  A
C2795     Br2802   1.930       .  S
C2796      C2797   1.401       .  A
C2797      C2798   1.401       .  A
C2797     Br2804   1.931       .  S
C2798      C2799   1.413       .  A
C2798     Br2803   1.925       .  S
C2799      C2800   1.409       .  A
C2800     Br2801   1.927       .  S
C2805      C2806   1.411       .  A
C2805      C2810   1.413       .  A
C2805     Br2812   1.919       .  S
C2806      C2807   1.393       .  A
C2807      C2808   1.405       .  A
C2807     Br2814   1.930       .  S
C2808      C2809   1.425       .  A
C2808     Br2813   1.919       .  S
C2809      C2810   1.407       .  A
C2810     Br2811   1.923       .  S
C2815      C2816   1.409       .  A
C2815      C2820   1.405       .  A
C2815     Br2822   1.929       .  S
C2816      C2817   1.425       .  A
C2817      C2818   1.403       .  A
C2817     Br2824   1.927       .  S
C2818      C2819   1.393       .  A
C2818     Br2823   1.932       .  S
C2819      C2820   1.406       .  A
C2820     Br2821   1.921       .  S
C2825      C2826   1.429       .  A
C2825      C2830   1.419       .  A
C2825     Br2832   1.919       .  S
C2826      C2827   1.401       .  A
C2827      C2828   1.412       .  A
C2827     Br2834   1.926       .  S
C2828      C2829   1.422       .  A
C2828     Br2833   1.914       .  S
C2829      C2830   1.402       .  A
C2830     Br2831   1.926       .  S
C2835      C2836   1.423       .  A
C2835      C2840   1.422       .  A
C2835     Br2842   1.936       .  S
C2836      C2837   1.420       .  A
C2837      C2838   1.420       .  A
C2838      C2839   1.417       .  A
C2838     Br2843   1.933       .  S
C2839      C2840   1.425       .  A
C2840     Br2841   1.935       .  S
C2845      C2846   1.425       .  A
C2845      C2850   1.414       .  A
C2845     Br2852   1.924       .  S
C2846      C2847   1.420   1_565  A
C2847      C2848   1.416       .  A
C2847     Br2854   1.924       .  S
C2848      C2849   1.407       .  A
C2848     Br2853   1.929       .  S
C2849      C2850   1.403   1_545  A
C2850     Br2851   1.933       .  S
C2855      C2856   1.407   1_556  A
C2855      C2860   1.409       .  A
C2855     Br2862   1.931       .  S
C2857      C2858   1.409       .  A
C2857     Br2864   1.931       .  S
C2858     Br2863   1.924       .  S
C2859      C2860   1.409   1_554  A
C2860     Br2861   1.917   1_565  S
C2865      C2866   1.411       .  A
C2865      C2870   1.417       .  A
C2866      C2867   1.414       .  A
C2867      C2868   1.420       .  A
C2867     Br2874   1.932       .  S
C2868      C2869   1.420       .  A
C2868     Br2873   1.924       .  S
C2869      C2870   1.423       .  A
C2870     Br2871   1.934       .  S
C2875      C2876   1.417       .  A
C2875      C2880   1.412       .  A
C2875     Br2882   1.931   1_655  S
C2876      C2877   1.416       .  A
C2877      C2878   1.404       .  A
C2877     Br2884   1.941       .  S
C2878      C2879   1.415       .  A
C2878     Br2883   1.934       .  S
C2879      C2880   1.408       .  A
C2880     Br2881   1.930       .  S
C2885      C2886   1.400       .  A
C2885      C2890   1.416       .  A
C2885     Br2892   1.928       .  S
C2886      C2887   1.427       .  A
C2887      C2888   1.421       .  A
C2887     Br2894   1.918       .  S
C2888      C2889   1.404       .  A
C2888     Br2893   1.927       .  S
C2889      C2890   1.427       .  A
C2890     Br2891   1.913       .  S
C2895      C2896   1.418       .  A
C2895      C2900   1.406       .  A
C2895     Br2902   1.929       .  S
C2897      C2898   1.413       .  A
C2897     Br2904   1.926       .  S
C2898     Br2903   1.928       .  S
C2899      C2900   1.405       .  A
C2900     Br2901   1.930       .  S
C2905      C2906   1.421   1_455  A
C2905      C2910   1.421       .  A
C2905     Br2912   1.922       .  S
C2906      C2907   1.422       .  A
C2907      C2908   1.418       .  A
C2907     Br2914   1.927       .  S
C2908      C2909   1.410   1_655  A
C2908     Br2913   1.923       .  S
C2909      C2910   1.413       .  A
C2910     Br2911   1.933       .  S
C2915      C2916   1.403       .  A
C2915      C2920   1.410       .  A
C2915     Br2922   1.923       .  S
C2916      C2917   1.383       .  A
C2917      C2918   1.398       .  A
C2917     Br2924   1.940       .  S
C2918      C2919   1.445       .  A
C2918     Br2923   1.934       .  S
C2919      C2920   1.417       .  A
C2920     Br2921   1.927       .  S
C2925      C2926   1.407       .  A
C2925      C2930   1.402       .  A
C2925     Br2932   1.933       .  S
C2926      C2927   1.422       .  A
C2927      C2928   1.401       .  A
C2927     Br2934   1.929       .  S
C2928      C2929   1.396       .  A
C2928     Br2933   1.932       .  S
C2929      C2930   1.405       .  A
C2930     Br2931   1.909       .  S
C2935      C2936   1.415       .  A
C2935      C2940   1.421       .  A
C2935     Br2942   1.927       .  S
C2936      C2937   1.424       .  A
C2937      C2938   1.409       .  A
C2937     Br2944   1.935       .  S
C2938      C2939   1.412       .  A
C2938     Br2943   1.939       .  S
C2939      C2940   1.416       .  A
C2940     Br2941   1.929       .  S
C2945      C2946   1.413       .  A
C2945      C2950   1.406       .  A
C2945     Br2952   1.929       .  S
C2946      C2947   1.429       .  A
C2947      C2948   1.398       .  A
C2947     Br2954   1.931       .  S
C2948      C2949   1.393       .  A
C2948     Br2953   1.937       .  S
C2949      C2950   1.400       .  A
C2950     Br2951   1.916       .  S
C2955      C2956   1.399       .  A
C2955      C2960   1.395       .  A
C2956      C2957   1.409       .  A
C2957      C2958   1.416       .  A
C2957     Br2964   1.925       .  S
C2958      C2959   1.417       .  A
C2958     Br2963   1.926       .  S
C2959      C2960   1.413       .  A
C2960     Br2961   1.921       .  S
C2965      C2966   1.424       .  A
C2965      C2970   1.412       .  A
C2965     Br2972   1.924       .  S
C2966      C2967   1.417       .  A
C2967      C2968   1.425       .  A
C2967     Br2974   1.928       .  S
C2968      C2969   1.422       .  A
C2969      C2970   1.408       .  A
C2970     Br2971   1.935   1_556  S
C2975      C2976   1.403   1_455  A
C2975      C2980   1.417       .  A
C2975     Br2982   1.929       .  S
C2976      C2977   1.425       .  A
C2977      C2978   1.415   1_655  A
C2977     Br2984   1.920       .  S
C2978      C2979   1.401       .  A
C2978     Br2983   1.927       .  S
C2979      C2980   1.426       .  A
C2980     Br2981   1.918       .  S
C2985      C2986   1.417       .  A
C2985      C2990   1.421       .  A
C2985     Br2992   1.923       .  S
C2986      C2987   1.414       .  A
C2987      C2988   1.425       .  A
C2987     Br2994   1.927       .  S
C2988      C2989   1.417       .  A
C2988     Br2993   1.925       .  S
C2989      C2990   1.411       .  A
C2990     Br2991   1.928       .  S
C2995      C2996   1.417       .  A
C2995      C3000   1.409       .  A
C2995     Br3002   1.927       .  S
C2996      C2997   1.406       .  A
C2997      C2998   1.399       .  A
C2997     Br3004   1.923       .  S
C2998      C2999   1.407       .  A
C2998     Br3003   1.922       .  S
C2999      C3000   1.402       .  A
C3000     Br3001   1.925       .  S
C3005      C3006   1.404       .  A
C3005      C3010   1.404       .  A
C3005     Br3012   1.930       .  S
C3006      C3007   1.412       .  A
C3007      C3008   1.409       .  A
C3007     Br3014   1.930       .  S
C3008      C3009   1.407       .  A
C3008     Br3013   1.927       .  S
C3009      C3010   1.410       .  A
C3010     Br3011   1.924       .  S
C3015      C3016   1.419       .  A
C3015      C3020   1.405       .  A
C3015     Br3022   1.939       .  S
C3016      C3017   1.414       .  A
C3017      C3018   1.421       .  A
C3017     Br3024   1.926       .  S
C3018      C3019   1.418       .  A
C3018     Br3023   1.929       .  S
C3019      C3020   1.418       .  A
C3020     Br3021   1.941       .  S
C3025      C3026   1.401       .  A
C3025      C3030   1.400       .  A
C3025     Br3032   1.933       .  S
C3026      C3027   1.417       .  A
C3027      C3028   1.404       .  A
C3027     Br3034   1.929       .  S
C3028      C3029   1.403       .  A
C3028     Br3033   1.934       .  S
C3029      C3030   1.417       .  A
C3030     Br3031   1.930       .  S
C3035      C3036   1.406       .  A
C3035      C3040   1.417       .  A
C3035     Br3042   1.924       .  S
C3036      C3037   1.391       .  A
C3037      C3038   1.393       .  A
C3037     Br3044   1.924       .  S
C3038      C3039   1.421       .  A
C3039      C3040   1.420       .  A
C3040     Br3041   1.926   1_556  S
C3045      C3046   1.414       .  A
C3045      C3050   1.422       .  A
C3045     Br3052   1.928       .  S
C3046      C3047   1.415       .  A
C3047      C3048   1.414       .  A
C3047     Br3054   1.915       .  S
C3048      C3049   1.407       .  A
C3048     Br3053   1.930       .  S
C3049      C3050   1.415       .  A
C3050     Br3051   1.926       .  S
C3055      C3056   1.426       .  A
C3055      C3060   1.422       .  A
C3055     Br3062   1.927       .  S
C3056      C3057   1.415       .  A
C3057      C3058   1.426       .  A
C3057     Br3064   1.931       .  S
C3058      C3059   1.426       .  A
C3059      C3060   1.418       .  A
C3060     Br3061   1.939       .  S
C3065      C3066   1.421       .  A
C3065      C3070   1.412       .  A
C3065     Br3072   1.941       .  S
C3066      C3067   1.425       .  A
C3067      C3068   1.420       .  A
C3067     Br3074   1.932   1_655  S
C3068      C3069   1.408       .  A
C3068     Br3073   1.928       .  S
C3069      C3070   1.415       .  A
C3070     Br3071   1.929       .  S
C3075      C3076   1.417       .  A
C3075      C3080   1.407       .  A
C3075     Br3082   1.933       .  S
C3076      C3077   1.413       .  A
C3077      C3078   1.426       .  A
C3077     Br3084   1.925       .  S
C3078      C3079   1.421       .  A
C3078     Br3083   1.928   1_545  S
C3079      C3080   1.420       .  A
C3080     Br3081   1.943       .  S
C3085      C3086   1.410       .  A
C3085      C3090   1.410       .  A
C3085     Br3092   1.921       .  S
C3086      C3087   1.402       .  A
C3087      C3088   1.401       .  A
C3087     Br3094   1.928       .  S
C3088      C3089   1.422       .  A
C3088     Br3093   1.935       .  S
C3089      C3090   1.413       .  A
C3090     Br3091   1.933       .  S
C3095      C3096   1.401       .  A
C3095      C3100   1.407       .  A
C3095     Br3102   1.921       .  S
C3096      C3097   1.396       .  A
C3097      C3098   1.404       .  A
C3097     Br3104   1.937       .  S
C3098      C3099   1.432       .  A
C3098     Br3103   1.935       .  S
C3099      C3100   1.416       .  A
C3100     Br3101   1.930       .  S
C3105      C3106   1.412   1_655  A
C3105      C3110   1.414       .  A
C3105     Br3112   1.921       .  S
C3106      C3107   1.415       .  A
C3107      C3108   1.417       .  A
C3107     Br3114   1.929       .  S
C3108      C3109   1.410   1_455  A
C3108     Br3113   1.926       .  S
C3109      C3110   1.409       .  A
C3110     Br3111   1.926       .  S
C3115      C3116   1.410       .  A
C3115      C3120   1.411       .  A
C3115     Br3122   1.929       .  S
C3116      C3117   1.406       .  A
C3117      C3118   1.407       .  A
C3117     Br3124   1.928       .  S
C3118      C3119   1.412       .  A
C3118     Br3123   1.927       .  S
C3119      C3120   1.409       .  A
C3120     Br3121   1.928       .  S
C3125      C3126   1.394       .  A
C3125      C3130   1.401       .  A
C3125     Br3132   1.937       .  S
C3126      C3127   1.407       .  A
C3127      C3128   1.411       .  A
C3128      C3129   1.416       .  A
C3128     Br3133   1.927       .  S
C3129      C3130   1.436       .  A
C3130     Br3131   1.941       .  S
C3135      C3136   1.416       .  A
C3135      C3140   1.404       .  A
C3135     Br3142   1.917       .  S
C3136      C3137   1.393       .  A
C3137      C3138   1.398       .  A
C3137     Br3144   1.937       .  S
C3138      C3139   1.426       .  A
C3138     Br3143   1.928       .  S
C3139      C3140   1.401       .  A
C3140     Br3141   1.935       .  S
C3145      C3146   1.416       .  A
C3145      C3150   1.406       .  A
C3145     Br3152   1.943       .  S
C3146      C3147   1.420       .  A
C3147      C3148   1.420       .  A
C3147     Br3154   1.932       .  S
C3148      C3149   1.413       .  A
C3148     Br3153   1.927       .  S
C3149      C3150   1.418       .  A
C3150     Br3151   1.931       .  S
C3155      C3156   1.423       .  A
C3155      C3160   1.423   1_655  A
C3155     Br3162   1.929       .  S
C3156      C3157   1.407   1_655  A
C3157      C3158   1.413       .  A
C3157     Br3164   1.937       .  S
C3158      C3159   1.426       .  A
C3158     Br3163   1.924       .  S
C3159      C3160   1.414       .  A
C3160     Br3161   1.930       .  S
C3165      C3166   1.409       .  A
C3165      C3170   1.410       .  A
C3165     Br3172   1.924       .  S
C3166      C3167   1.412       .  A
C3167      C3168   1.412       .  A
C3167     Br3174   1.926       .  S
C3168      C3169   1.407       .  A
C3168     Br3173   1.928       .  S
C3169      C3170   1.411       .  A
C3170     Br3171   1.928       .  S
C3175      C3176   1.422       .  A
C3175      C3180   1.420       .  A
C3175     Br3182   1.938       .  S
C3176      C3177   1.427       .  A
C3177      C3178   1.425       .  A
C3177     Br3184   1.932       .  S
C3178      C3179   1.417       .  A
C3178     Br3183   1.934       .  S
C3179      C3180   1.419       .  A
C3180     Br3181   1.931       .  S
C3185      C3186   1.417       .  A
C3185      C3190   1.418       .  A
C3185     Br3192   1.927       .  S
C3186      C3187   1.419       .  A
C3187      C3188   1.415       .  A
C3188      C3189   1.410       .  A
C3188     Br3193   1.931       .  S
C3189      C3190   1.412       .  A
C3190     Br3191   1.924       .  S
C3195      C3196   1.426       .  A
C3195      C3200   1.396       .  A
C3195     Br3202   1.942       .  S
C3196      C3197   1.419       .  A
C3197      C3198   1.414       .  A
C3197     Br3204   1.928       .  S
C3198      C3199   1.405       .  A
C3199      C3200   1.395       .  A
C3200     Br3201   1.925       .  S
C3205      C3206   1.398       .  A
C3205      C3210   1.398       .  A
C3205     Br3212   1.936       .  S
C3206      C3207   1.416       .  A
C3207      C3208   1.402       .  A
C3207     Br3214   1.929       .  S
C3208      C3209   1.401       .  A
C3208     Br3213   1.932       .  S
C3209      C3210   1.410       .  A
C3210     Br3211   1.902       .  S
C3215      C3216   1.421       .  A
C3215      C3220   1.414       .  A
C3215     Br3222   1.934       .  S
C3216      C3217   1.417       .  A
C3217      C3218   1.409       .  A
C3217     Br3224   1.941       .  S
C3218      C3219   1.421       .  A
C3218     Br3223   1.939       .  S
C3219      C3220   1.409       .  A
C3220     Br3221   1.931       .  S
C3225      C3230   1.406       .  A
C3225     Br3232   1.916       .  S
C3226      C3227   1.411       .  A
C3227      C3228   1.409       .  A
C3227     Br3234   1.927       .  S
C3228      C3229   1.410   1_556  A
C3228     Br3233   1.929       .  S
C3230     Br3231   1.921       .  S
C3235      C3236   1.416       .  A
C3235      C3240   1.400       .  A
C3235     Br3242   1.940       .  S
C3236      C3237   1.420       .  A
C3237      C3238   1.418       .  A
C3237     Br3244   1.929       .  S
C3238      C3239   1.413       .  A
C3238     Br3243   1.929       .  S
C3239      C3240   1.411       .  A
C3240     Br3241   1.932       .  S
C3245      C3246   1.405       .  A
C3245      C3250   1.403       .  A
C3245     Br3252   1.935       .  S
C3246      C3247   1.420       .  A
C3247      C3248   1.404       .  A
C3247     Br3254   1.930       .  S
C3248      C3249   1.401       .  A
C3248     Br3253   1.934       .  S
C3249      C3250   1.410       .  A
C3250     Br3251   1.910       .  S
C3255      C3256   1.420       .  A
C3255      C3260   1.414       .  A
C3255     Br3262   1.930       .  S
C3256      C3257   1.420       .  A
C3257      C3258   1.394       .  A
C3257     Br3264   1.940       .  S
C3258      C3259   1.395       .  A
C3258     Br3263   1.922       .  S
C3259      C3260   1.405       .  A
C3260     Br3261   1.924       .  S
C3265      C3266   1.411       .  A
C3265      C3270   1.431       .  A
C3265     Br3272   1.922       .  S
C3266      C3267   1.402       .  A
C3267      C3268   1.406       .  A
C3267     Br3274   1.924       .  S
C3268      C3269   1.428       .  A
C3268     Br3273   1.936       .  S
C3269      C3270   1.425       .  A
C3270     Br3271   1.926       .  S
C3275      C3276   1.411       .  A
C3275      C3280   1.396       .  A
C3275     Br3282   1.914       .  S
C3276      C3277   1.411       .  A
C3277      C3278   1.419       .  A
C3277     Br3284   1.925       .  S
C3278      C3279   1.420       .  A
C3278     Br3283   1.928       .  S
C3279      C3280   1.408       .  A
C3280     Br3281   1.941       .  S
C3285      C3286   1.427       .  A
C3285      C3290   1.423       .  A
C3285     Br3292   1.931       .  S
C3286      C3287   1.420       .  A
C3287      C3288   1.419       .  A
C3287     Br3294   1.932       .  S
C3288      C3289   1.417       .  A
C3288     Br3293   1.933       .  S
C3289      C3290   1.418       .  A
C3290     Br3291   1.934       .  S
C3295      C3296   1.421       .  A
C3295     Br3302   1.932       .  S
C3296      C3297   1.430       .  A
C3297      C3298   1.404   1_556  A
C3297     Br3304   1.935       .  S
C3298     Br3303   1.936       .  S
C3299      C3300   1.408       .  A
C3300     Br3301   1.928       .  S
C3305      C3306   1.396       .  A
C3305      C3310   1.401       .  A
C3305     Br3312   1.935       .  S
C3306      C3307   1.404       .  A
C3307      C3308   1.407       .  A
C3307     Br3314   1.917       .  S
C3308      C3309   1.414       .  A
C3308     Br3313   1.931       .  S
C3309      C3310   1.432       .  A
C3310     Br3311   1.938       .  S
C3315      C3316   1.414       .  A
C3315      C3320   1.412       .  A
C3315     Br3322   1.928       .  S
C3316      C3317   1.414       .  A
C3317      C3318   1.410       .  A
C3317     Br3324   1.924       .  S
C3318      C3319   1.403       .  A
C3318     Br3323   1.928       .  S
C3319      C3320   1.408       .  A
C3320     Br3321   1.927       .  S
C3325      C3326   1.410       .  A
C3325      C3330   1.409       .  A
C3325     Br3332   1.930       .  S
C3326      C3327   1.404       .  A
C3327      C3328   1.403       .  A
C3327     Br3334   1.931       .  S
C3328      C3329   1.411       .  A
C3328     Br3333   1.924       .  S
C3329      C3330   1.408       .  A
C3330     Br3331   1.926       .  S
C3335      C3336   1.410       .  A
C3335      C3340   1.413   1_554  A
C3336      C3337   1.415   1_554  A
C3337      C3338   1.417       .  A
C3337     Br3344   1.929       .  S
C3338      C3339   1.408       .  A
C3338     Br3343   1.923       .  S
C3339      C3340   1.411       .  A
C3340     Br3341   1.924       .  S
C3345      C3346   1.415       .  A
C3345      C3350   1.425       .  A
C3346      C3347   1.407       .  A
C3347      C3348   1.382       .  A
C3347     Br3354   1.935       .  S
C3348      C3349   1.425       .  A
C3348     Br3353   1.947       .  S
C3349      C3350   1.422       .  A
C3350     Br3351   1.928       .  S
C3355      C3356   1.409       .  A
C3355      C3360   1.406       .  A
C3355     Br3362   1.927       .  S
C3356      C3357   1.423       .  A
C3357      C3358   1.399       .  A
C3357     Br3364   1.925       .  S
C3358      C3359   1.389       .  A
C3358     Br3363   1.926       .  S
C3359      C3360   1.404       .  A
C3360     Br3361   1.922       .  S
C3365      C3366   1.411       .  A
C3365      C3370   1.402       .  A
C3365     Br3372   1.932       .  S
C3366      C3367   1.410       .  A
C3367      C3368   1.422       .  A
C3367     Br3374   1.929       .  S
C3368      C3369   1.424       .  A
C3368     Br3373   1.930       .  S
C3369      C3370   1.420       .  A
C3370     Br3371   1.942       .  S
C3375      C3376   1.415       .  A
C3375      C3380   1.401       .  A
C3375     Br3382   1.936       .  S
C3376      C3377   1.414       .  A
C3377      C3378   1.421       .  A
C3377     Br3384   1.930       .  S
C3378      C3379   1.422       .  A
C3378     Br3383   1.930       .  S
C3379      C3380   1.417       .  A
C3380     Br3381   1.943       .  S
C3385      C3386   1.421       .  A
C3385      C3390   1.425       .  A
C3385     Br3392   1.927       .  S
C3386      C3387   1.403       .  A
C3387      C3388   1.407       .  A
C3387     Br3394   1.933       .  S
C3388      C3389   1.422       .  A
C3388     Br3393   1.923       .  S
C3389      C3390   1.416       .  A
C3390     Br3391   1.930       .  S
C3395      C3396   1.412       .  A
C3395      C3400   1.403       .  A
C3395     Br3402   1.925       .  S
C3396      C3397   1.398       .  A
C3397      C3398   1.392       .  A
C3397     Br3404   1.932       .  S
C3398      C3399   1.414       .  A
C3398     Br3403   1.926       .  S
C3399      C3400   1.402       .  A
C3400     Br3401   1.930       .  S
C3405      C3406   1.399       .  A
C3405      C3410   1.396       .  A
C3405     Br3412   1.928       .  S
C3406      C3407   1.406       .  A
C3407      C3408   1.412       .  A
C3407     Br3414   1.926       .  S
C3408      C3409   1.418       .  A
C3408     Br3413   1.928       .  S
C3409      C3410   1.417       .  A
C3410     Br3411   1.933       .  S
C3415      C3416   1.411       .  A
C3415      C3420   1.417       .  A
C3415     Br3422   1.929       .  S
C3416      C3417   1.415       .  A
C3417      C3418   1.414       .  A
C3417     Br3424   1.922       .  S
C3418      C3419   1.407       .  A
C3418     Br3423   1.928       .  S
C3419      C3420   1.414       .  A
C3420     Br3421   1.924       .  S
C3425      C3426   1.404       .  A
C3425      C3430   1.407       .  A
C3425     Br3432   1.926       .  S
C3426      C3427   1.415       .  A
C3427      C3428   1.408       .  A
C3427     Br3434   1.925       .  S
C3428      C3429   1.405       .  A
C3428     Br3433   1.931       .  S
C3429      C3430   1.412       .  A
C3430     Br3431   1.924       .  S
C3435      C3436   1.429       .  A
C3435      C3440   1.419       .  A
C3435     Br3442   1.937       .  S
C3436      C3437   1.420       .  A
C3437      C3438   1.417       .  A
C3437     Br3444   1.941       .  S
C3438      C3439   1.424       .  A
C3439      C3440   1.412       .  A
C3440     Br3441   1.934   1_556  S
C3445      C3446   1.406       .  A
C3445      C3450   1.408       .  A
C3445     Br3452   1.927       .  S
C3446      C3447   1.409       .  A
C3447      C3448   1.403       .  A
C3447     Br3454   1.924       .  S
C3448      C3449   1.404       .  A
C3448     Br3453   1.929       .  S
C3449      C3450   1.411       .  A
C3450     Br3451   1.928       .  S
C3455      C3456   1.428       .  A
C3455      C3460   1.396       .  A
C3455     Br3462   1.934       .  S
C3456      C3457   1.419       .  A
C3457      C3458   1.414       .  A
C3457     Br3464   1.928       .  S
C3458      C3459   1.406       .  A
C3458     Br3463   1.927       .  S
C3459      C3460   1.396       .  A
C3465      C3466   1.402       .  A
C3465      C3470   1.400       .  A
C3465     Br3472   1.932       .  S
C3466      C3467   1.411       .  A
C3467      C3468   1.398       .  A
C3467     Br3474   1.914       .  S
C3468      C3469   1.398       .  A
C3468     Br3473   1.932       .  S
C3469      C3470   1.414       .  A
C3470     Br3471   1.926       .  S
C3475      C3476   1.419       .  A
C3475      C3480   1.415       .  A
C3475     Br3482   1.933       .  S
C3476      C3477   1.413       .  A
C3477      C3478   1.408       .  A
C3477     Br3484   1.940       .  S
C3478      C3479   1.425       .  A
C3478     Br3483   1.941       .  S
C3479      C3480   1.413       .  A
C3480     Br3481   1.931       .  S
C3485      C3486   1.412       .  A
C3485      C3490   1.407       .  A
C3485     Br3492   1.928       .  S
C3486      C3487   1.407       .  A
C3487      C3488   1.407       .  A
C3487     Br3494   1.928       .  S
C3488      C3489   1.410       .  A
C3488     Br3493   1.926   1_556  S
C3489      C3490   1.407       .  A
C3490     Br3491   1.930       .  S
C3495      C3496   1.416       .  A
C3495      C3500   1.395       .  A
C3495     Br3502   1.936       .  S
C3496      C3497   1.416       .  A
C3497      C3498   1.412       .  A
C3498      C3499   1.407       .  A
C3498     Br3503   1.926       .  S
C3499      C3500   1.398       .  A
C3500     Br3501   1.925       .  S
C3505      C3506   1.414       .  A
C3505      C3510   1.406       .  A
C3505     Br3512   1.916       .  S
C3506      C3507   1.401       .  A
C3507      C3508   1.400       .  A
C3507     Br3514   1.934       .  S
C3508      C3509   1.419       .  A
C3508     Br3513   1.925       .  S
C3509      C3510   1.402       .  A
C3510     Br3511   1.932       .  S
C3515      C3516   1.422       .  A
C3515      C3520   1.440       .  A
C3515     Br3522   1.921       .  S
C3516      C3517   1.414       .  A
C3517      C3518   1.389       .  A
C3517     Br3524   1.933       .  S
C3518      C3519   1.407       .  A
C3519      C3520   1.420       .  A
C3520     Br3521   1.920       .  S
C3525      C3526   1.409       .  A
C3525      C3530   1.403       .  A
C3525     Br3532   1.938       .  S
C3526      C3527   1.417       .  A
C3527      C3528   1.416       .  A
C3527     Br3534   1.930       .  S
C3528      C3529   1.412       .  A
C3528     Br3533   1.929       .  S
C3529      C3530   1.419       .  A
C3530     Br3531   1.932       .  S
C3535      C3536   1.409       .  A
C3535      C3540   1.416       .  A
C3535     Br3542   1.929       .  S
C3536      C3537   1.413       .  A
C3537      C3538   1.399       .  A
C3537     Br3544   1.935       .  S
C3538      C3539   1.415       .  A
C3538     Br3543   1.939       .  S
C3539      C3540   1.419       .  A
C3540     Br3541   1.930       .  S
C3545      C3546   1.400       .  A
C3545      C3550   1.400       .  A
C3545     Br3552   1.931       .  S
C3546      C3547   1.416       .  A
C3547      C3548   1.407       .  A
C3547     Br3554   1.926       .  S
C3548      C3549   1.403       .  A
C3548     Br3553   1.932       .  S
C3549      C3550   1.418       .  A
C3550     Br3551   1.930       .  S
C3555      C3556   1.411       .  A
C3555      C3560   1.408       .  A
C3555     Br3562   1.917       .  S
C3556      C3557   1.400       .  A
C3557      C3558   1.410       .  A
C3557     Br3564   1.932       .  S
C3558      C3559   1.429       .  A
C3559      C3560   1.411       .  A
C3560     Br3561   1.928       .  S
C3565      C3566   1.411       .  A
C3565      C3570   1.401       .  A
C3565     Br3572   1.945       .  S
C3566      C3567   1.421       .  A
C3567      C3568   1.422       .  A
C3567     Br3574   1.930       .  S
C3568      C3569   1.416       .  A
C3568     Br3573   1.929       .  S
C3569      C3570   1.420       .  A
C3570     Br3571   1.926       .  S
C3575      C3576   1.420       .  A
C3575      C3580   1.402       .  A
C3575     Br3582   1.942       .  S
C3576      C3577   1.418       .  A
C3577      C3578   1.416       .  A
C3577     Br3584   1.930       .  S
C3578      C3579   1.410       .  A
C3578     Br3583   1.929       .  S
C3579      C3580   1.413       .  A
C3580     Br3581   1.938       .  S
C3585      C3586   1.421       .  A
C3585      C3590   1.418   1_565  A
C3585     Br3592   1.929       .  S
C3586      C3587   1.419       .  A
C3587      C3588   1.425   1_565  A
C3587     Br3594   1.932       .  S
C3588      C3589   1.424       .  A
C3588     Br3593   1.932       .  S
C3589      C3590   1.422       .  A
C3590     Br3591   1.945       .  S
C3595      C3596   1.400       .  A
C3595      C3600   1.408       .  A
C3595     Br3602   1.935       .  S
C3596      C3597   1.409       .  A
C3597      C3598   1.413       .  A
C3597     Br3604   1.915       .  S
C3598      C3599   1.413       .  A
C3598     Br3603   1.930       .  S
C3599      C3600   1.429       .  A
C3600     Br3601   1.933       .  S
C3605      C3606   1.401       .  A
C3605      C3610   1.409       .  A
C3605     Br3612   1.926       .  S
C3606      C3607   1.399       .  A
C3607      C3608   1.405       .  A
C3607     Br3614   1.931       .  S
C3608      C3609   1.434       .  A
C3609      C3610   1.420       .  A
C3610     Br3611   1.930       .  S
C3615      C3616   1.412       .  A
C3615      C3620   1.420       .  A
C3615     Br3622   1.926       .  S
C3616      C3617   1.412       .  A
C3617      C3618   1.412       .  A
C3617     Br3624   1.925       .  S
C3618      C3619   1.409       .  A
C3618     Br3623   1.927       .  S
C3619      C3620   1.413       .  A
C3620     Br3621   1.924       .  S
C3625      C3626   1.405       .  A
C3625      C3630   1.401       .  A
C3625     Br3632   1.929       .  S
C3626      C3627   1.407       .  A
C3627      C3628   1.411       .  A
C3627     Br3634   1.923       .  S
C3628      C3629   1.411       .  A
C3628     Br3633   1.930       .  S
C3629      C3630   1.409       .  A
C3630     Br3631   1.918       .  S
C3635      C3636   1.420       .  A
C3635      C3640   1.405       .  A
C3635     Br3642   1.945       .  S
C3637      C3638   1.417       .  A
C3637     Br3644   1.928       .  S
C3638     Br3643   1.930   1_455  S
C3639      C3640   1.419       .  A
C3640     Br3641   1.939       .  S
C3645      C3646   1.423       .  A
C3645      C3650   1.416       .  A
C3645     Br3652   1.929       .  S
C3646      C3647   1.411       .  A
C3647      C3648   1.417       .  A
C3648      C3649   1.427       .  A
C3648     Br3653   1.935       .  S
C3649      C3650   1.420       .  A
C3650     Br3651   1.940       .  S
C3655      C3656   1.418       .  A
C3655      C3660   1.395       .  A
C3655     Br3662   1.922       .  S
C3656      C3657   1.403       .  A
C3657      C3658   1.406       .  A
C3657     Br3664   1.931       .  S
C3658      C3659   1.416       .  A
C3658     Br3663   1.929       .  S
C3659      C3660   1.398       .  A
C3660     Br3661   1.937       .  S
C3665      C3666   1.395       .  A
C3665      C3670   1.394       .  A
C3665     Br3672   1.925       .  S
C3666      C3667   1.407       .  A
C3667      C3668   1.414       .  A
C3667     Br3674   1.926       .  S
C3668      C3669   1.418       .  A
C3668     Br3673   1.927       .  S
C3669      C3670   1.423       .  A
C3670     Br3671   1.942       .  S
C3675      C3676   1.404       .  A
C3675      C3680   1.409       .  A
C3675     Br3682   1.923   1_545  S
C3677      C3678   1.399       .  A
C3677     Br3684   1.925       .  S
C3678     Br3683   1.928       .  S
C3679      C3680   1.420       .  A
C3680     Br3681   1.935       .  S
C3685      C3686   1.409       .  A
C3685      C3690   1.398       .  A
C3685     Br3692   1.917       .  S
C3686      C3687   1.408       .  A
C3687      C3688   1.418       .  A
C3687     Br3694   1.927       .  S
C3688      C3689   1.419       .  A
C3688     Br3693   1.926       .  S
C3689      C3690   1.408       .  A
C3690     Br3691   1.937       .  S
C3695      C3696   1.417       .  A
C3695      C3700   1.419       .  A
C3695     Br3702   1.926       .  S
C3696      C3697   1.418       .  A
C3697      C3698   1.428       .  A
C3697     Br3704   1.931       .  S
C3698      C3699   1.425       .  A
C3698     Br3703   1.928       .  S
C3699      C3700   1.422       .  A
C3700     Br3701   1.939       .  S
C3705      C3706   1.403       .  A
C3705      C3710   1.406       .  A
C3705     Br3712   1.921       .  S
C3706      C3707   1.398       .  A
C3707      C3708   1.405       .  A
C3707     Br3714   1.935       .  S
C3708      C3709   1.429       .  A
C3708     Br3713   1.933       .  S
C3709      C3710   1.414       .  A
C3710     Br3711   1.930       .  S
C3715      C3716   1.434       .  A
C3715      C3720   1.395       .  A
C3715     Br3722   1.935       .  S
C3716      C3717   1.420       .  A
C3717      C3718   1.414       .  A
C3717     Br3724   1.928       .  S
C3718      C3719   1.406       .  A
C3718     Br3723   1.927       .  S
C3719      C3720   1.388       .  A
C3720     Br3721   1.937       .  S
C3725      C3726   1.406   1_565  A
C3725      C3730   1.413       .  A
C3725     Br3732   1.930       .  S
C3726      C3727   1.415       .  A
C3727      C3728   1.420       .  A
C3727     Br3734   1.926       .  S
C3728      C3729   1.412   1_545  A
C3728     Br3733   1.928       .  S
C3729      C3730   1.415       .  A
C3730     Br3731   1.915       .  S
C3735      C3736   1.408       .  A
C3735      C3740   1.411       .  A
C3735     Br3742   1.928   1_565  S
C3736      C3737   1.413       .  A
C3737      C3738   1.409       .  A
C3737     Br3744   1.928       .  S
C3738      C3739   1.406       .  A
C3738     Br3743   1.929       .  S
C3739      C3740   1.412       .  A
C3740     Br3741   1.927       .  S
