geometry optimzed in LAMMPS
_audit_creation_date              2020-12-01 
_audit_creation_method            'lammps2cif' 
_symmetry_space_group_name_H-M    'P1' 
_symmetry_Int_Tables_number       1 
_symmetry_cell_setting            triclinic 
loop_ 
_symmetry_equiv_pos_as_xyz 
  x,y,z 
_cell_length_a                    35.22931543 
_cell_length_b                    35.2295419093096 
_cell_length_c                    27.76214172040839 
_cell_angle_alpha                 90.00004426435686 
_cell_angle_beta                  89.99969238915274 
_cell_angle_gamma                 90.00303144640792 
loop_ 
_atom_site_label 
_atom_site_type_symbol 
_atom_site_fract_x 
_atom_site_fract_y 
_atom_site_fract_z 
_atom_site_charge 
O1          O  0.10097563  0.07683086  0.42776043    -0.82200
O2          O  0.05639768  0.21391513  0.32511359    -0.66900
O3          O  0.11030915  0.12976657  0.36747229    -1.13500
C4          C  0.11701488  0.20177727  0.51055988     1.04700
O5          O  0.10150306  0.25254666  0.34642522    -0.80100
O6          O  0.15240133  0.23421143  0.41690463    -0.67700
Ni7        Ni  0.09039944  0.08040832  0.36132490     1.34900
C8          C  0.17174229  0.21076233  0.39268682     0.83400
O9          O  0.08272631  0.15010379  0.28062276    -0.80600
O10         O  0.08415173  0.08879043  0.29346401    -0.90900
C11         C  0.07899824  0.23968401  0.31367381     0.83000
O12         O  0.03722824  0.09013501  0.37318950    -0.69100
O13         O  0.09968246  0.22916741  0.48833634    -0.88400
C14         C  0.01733213  0.11988194  0.36699787     0.83900
C15         C  0.10008073  0.11848440  0.27633757     1.05400
H16         H  0.06272569  0.18362410  0.42572020     0.37200
O17         O  0.08625732  0.18829701  0.40884586    -1.11000
O18         O  0.16470264  0.17538091  0.39474178    -0.67700
Ni19       Ni  0.12190949  0.15013929  0.42755572     1.26300
O20         O  0.03205306  0.15163868  0.35668636    -0.67900
O21         O  0.13180118  0.17333012  0.48839078    -0.80200
C22         C  0.13691265  0.07553338  0.43016493     0.83200
O23         O  0.15433070  0.10629306  0.44090577    -0.67400
Ni24       Ni  0.09919884  0.24009191  0.41781611     1.27400
Ni25       Ni  0.08231429  0.17081574  0.34460438     1.26100
H26         H  0.13489729  0.12866901  0.35276814     0.37800
O27         O  0.14085998  0.48469726  0.19814681    -0.82200
O28         O  0.08810297  0.13098352  0.10373886    -0.66900
O29         O  0.15615059  0.04894394  0.13573510    -1.13500
C30         C  0.14237702  0.11867216  0.26830973     1.04700
O31         O  0.14146005  0.16042838  0.11692816    -0.80100
O32         O  0.20520270  0.14708003  0.17145934    -0.67700
Ni33       Ni  0.14317934  0.49715645  0.12675734     1.34900
C34         C  0.22509973  0.11732633  0.17758937     0.83400
O35         O  0.11061927  0.06395757  0.05620932    -0.80600
O36         O  0.14271751  0.50810346  0.05624514    -0.90900
C37         C  0.10552544  0.16173763  0.11448977     0.83000
O38         O  0.08997985  0.50307031  0.12765896    -0.69100
O39         O  0.15830425  0.14837637  0.25120945    -0.88400
C40         C  0.07065722  0.02651952  0.15190408     0.83900
C41         C  0.12541370  0.03551778  0.03403020     1.05400
H42         H  0.10753942  0.10855495  0.19187289     0.37200
O43         O  0.13212406  0.10746035  0.17716224    -1.11000
O44         O  0.21038279  0.08556294  0.18788139    -0.67700
Ni45       Ni  0.16011960  0.06638985  0.19998033     1.26300
O46         O  0.07771036  0.06189605  0.14986094    -0.67900
O47         O  0.15973074  0.08705663  0.26398546    -0.80200
C48         C  0.16339444  0.49753703  0.23087856     0.83200
O49         O  0.18602748  0.02326825  0.21940413    -0.67400
Ni50       Ni  0.15203938  0.15680866  0.18335918     1.27400
Ni51       Ni  0.12051332  0.08712355  0.11706000     1.26100
H52         H  0.17968107  0.05360871  0.11885382     0.37800
O53         O  0.11235855  0.47386362  0.44818178    -0.82200
O54         O  0.25852294  0.02665111  0.35349227    -0.66900
O55         O  0.17655028  0.45858785  0.38569927    -1.13500
C56         C  0.24648475  0.47250275  0.51811141     1.04700
O57         O  0.28798025  0.47328728  0.36660878    -0.80100
O58         O  0.27474585  0.40957506  0.42128955    -0.67700
Ni59       Ni  0.12474952  0.47153397  0.37678000     1.34900
C60         C  0.24500346  0.38967980  0.42753227     0.83400
O61         O  0.19144278  0.50412757  0.30612623    -0.80600
O62         O  0.13561748  0.47198914  0.30624189    -0.90900
C63         C  0.28928344  0.00922613  0.36420129     0.83000
O64         O  0.13065193  0.02473829  0.37766105    -0.69100
O65         O  0.27616954  0.45657616  0.50095351    -0.88400
C66         C  0.15409990  0.04405509  0.40191436     0.83900
C67         C  0.16299334  0.48931984  0.28398388     1.05400
H68         H  0.23623644  0.00724652  0.44168076     0.37200
O69         O  0.23511923  0.48265630  0.42698031    -1.11000
O70         O  0.21325302  0.40440529  0.43785936    -0.67700
Ni71       Ni  0.19409084  0.45467576  0.44992020     1.26300
O72         O  0.18948160  0.03703226  0.39980017    -0.67900
O73         O  0.21486201  0.45513690  0.51387595    -0.80200
C74         C  0.12525208  0.45137761  0.48093202     0.83200
O75         O  0.15100646  0.42876856  0.46947959    -0.67400
Ni76       Ni  0.28447891  0.46275732  0.43306489     1.27400
Ni77       Ni  0.21468863  0.49424141  0.36692615     1.26100
H78         H  0.18121023  0.43505090  0.36883263     0.37800
O79         O  0.20464712  0.01391289  0.67758390    -0.82200
O80         O  0.34174776  0.05844321  0.57500080    -0.66900
O81         O  0.25755795  0.00456254  0.61728504    -1.13500
C82         C  0.32955225  0.49790416  0.76034652     1.04700
O83         O  0.38028294  0.01323810  0.59621012    -0.80100
O84         O  0.36194264  0.46241275  0.66676996    -0.67700
Ni85       Ni  0.20821593  0.02447985  0.61114427     1.34900
C86         C  0.33850644  0.44310705  0.64248572     0.83400
O87         O  0.27791951  0.03216238  0.53044521    -0.80600
O88         O  0.21660521  0.03072731  0.54327686    -0.90900
C89         C  0.36742635  0.03576756  0.56348892     0.83000
O90         O  0.21796568  0.07763772  0.62304960    -0.69100
O91         O  0.35696140  0.01520623  0.73811649    -0.88400
C92         C  0.24772072  0.09753671  0.61693006     0.83900
C93         C  0.24630064  0.01480333  0.52614438     1.05400
H94         H  0.31144401  0.05211687  0.67554828     0.37200
O95         O  0.31609754  0.02858753  0.65866185    -1.11000
O96         O  0.30313186  0.45015735  0.64452878    -0.67700
Ni97       Ni  0.27792885  0.99295309  0.67736359     1.26300
O98         O  0.27947238  0.08282516  0.60657185    -0.67900
O99         O  0.30113117  0.48306247  0.73817936    -0.80200
C100        C  0.20332290  0.47798076  0.68003085     0.83200
O101        O  0.23407737  0.46054678  0.69073628    -0.67400
Ni102      Ni  0.36788178  0.01561176  0.66760248     1.27400
Ni103      Ni  0.29862018  0.03255565  0.59443805     1.26100
H104        H  0.25644804  0.47997883  0.60257240     0.37800
O105        O  0.03781021  0.47340570  0.17761605    -0.82200
O106        O  0.40073073  0.42889771  0.07498439    -0.66900
O107        O  0.48491118  0.48277339  0.11730545    -1.13500
C108        C  0.41289453  0.48940641  0.26035365     1.04700
O109        O  0.36217847  0.47408684  0.09620590    -0.80100
O110        O  0.38051922  0.02491041  0.16676850    -0.67700
Ni111      Ni  0.03425475  0.46285631  0.11117127     1.34900
C112        C  0.40395820  0.04421618  0.14248740     0.83400
O113        O  0.46456542  0.45519116  0.03045521    -0.80600
O114        O  0.02587884  0.45662665  0.04329882    -0.90900
C115        C  0.37503942  0.45156220  0.06348184     0.83000
O116        O  0.02450601  0.40969692  0.12305257    -0.69100
O117        O  0.38548847  0.47211020  0.23811428    -0.88400
C118        C  0.49475145  0.38980010  0.11692248     0.83900
C119        C  0.49618450  0.47255214  0.02616585     1.05400
H120        H  0.43101602  0.43520750  0.17554259     0.37200
O121        O  0.42636391  0.45873979  0.15866221    -1.11000
O122        O  0.43933304  0.03717129  0.14454660    -0.67700
Ni123      Ni  0.46453033  0.49437114  0.17738268     1.26300
O124        O  0.46300079  0.40451410  0.10656528    -0.67900
O125        O  0.44131722  0.50425363  0.23819507    -0.80200
C126        C  0.03913392  0.00933939  0.18006505     0.83200
O127        O  0.50838007  0.02677392  0.19077342    -0.67400
Ni128      Ni  0.37457731  0.47171141  0.16759824     1.27400
Ni129      Ni  0.44385278  0.45478480  0.09444151     1.26100
H130        H  0.48602404  0.00735775  0.10259980     0.37800
O131        O  0.13010503  0.01347145  0.94817844    -0.82200
O132        O  0.48393679  0.46067631  0.85352973    -0.66900
O133        O  0.06591333  0.02874302  0.88570237    -1.13500
C134        C  0.99600043  0.01485328  0.01813637     1.04700
O135        O  0.45447856  0.01403724  0.86664845    -0.80100
O136        O  0.46771888  0.07775876  0.92130224    -0.67700
Ni137      Ni  0.11771245  0.01579622  0.87677649     1.34900
C138        C  0.99746175  0.09765635  0.92752888     0.83400
O139        O  0.05100876  0.48319187  0.80614411    -0.80600
O140        O  0.10683801  0.01532677  0.80624030    -0.90900
C141        C  0.45317546  0.47810037  0.86423715     0.83000
O142        O  0.11181739  0.46259260  0.87766151    -0.69100
O143        O  0.46631382  0.03077886  0.00098360    -0.88400
C144        C  0.08837013  0.44327046  0.90190838     0.83900
C145        C  0.07945974  0.49798806  0.78399321     1.05400
H146        H  0.00623855  0.48009340  0.94170554     0.37200
O147        O  0.00735148  0.00467991  0.92700508    -1.11000
O148        O  0.02921464  0.08293446  0.93785309    -0.67700
Ni149      Ni  0.04838202  0.03266768  0.94992689     1.26300
O150        O  0.05298834  0.45029976  0.89981365    -0.67900
O151        O  0.02762188  0.03221882  0.01388890    -0.80200
C152        C  0.11721410  0.03596000  0.98092791     0.83200
O153        O  0.09146949  0.05857781  0.96946937    -0.67400
Ni154      Ni  0.45799118  0.02457892  0.93310031     1.27400
Ni155      Ni  0.02777293  0.49308718  0.86694670     1.26100
H156        H  0.06125133  0.05227734  0.86882976     0.37800
O157        O  0.39157929  0.16024007  0.42772730    -0.82200
O158        O  0.43603928  0.02321158  0.32497271    -0.66900
O159        O  0.38219476  0.10737664  0.36737335    -1.13500
C160        C  0.37554572  0.03530197  0.51037164     1.04700
O161        O  0.39085111  0.48464811  0.34619541    -0.80100
O162        O  0.34003902  0.50297164  0.41677910    -0.67700
Ni163      Ni  0.40211801  0.15671993  0.36127533     1.34900
C164        C  0.32075104  0.02640757  0.39247135     0.83400
O165        O  0.40974736  0.08707215  0.28049952    -0.80600
O166        O  0.40832181  0.14838029  0.29339066    -0.90900
C167        C  0.41336785  0.49752285  0.31346879     0.83000
O168        O  0.45528106  0.14695920  0.37311957    -0.69100
O169        O  0.39284504  0.50790350  0.48812055    -0.88400
C170        C  0.47516979  0.11720583  0.36695211     0.83900
C171        C  0.39238865  0.11869404  0.27623924     1.05400
H172        H  0.42975414  0.05345364  0.42556054     0.37200
O173        O  0.40621934  0.04880782  0.40868169    -1.11000
O174        O  0.32779311  0.06178331  0.39455451    -0.67700
Ni175      Ni  0.37059124  0.08696465  0.42743003     1.26300
O176        O  0.46044513  0.08546121  0.35658447    -0.67900
O177        O  0.36069677  0.06372508  0.48822211    -0.80200
C178        C  0.35564610  0.16156518  0.43017060     0.83200
O179        O  0.33820299  0.13081008  0.44085871    -0.67400
Ni180      Ni  0.39323608  0.49701749  0.41759488     1.27400
Ni181      Ni  0.41016630  0.06632672  0.34447023     1.26100
H182        H  0.35760935  0.10850336  0.35267176     0.37800
O183        O  0.35150866  0.25261084  0.19829602    -0.82200
O184        O  0.40421826  0.10647079  0.10358502    -0.66900
O185        O  0.33617833  0.18844324  0.13581017    -1.13500
C186        C  0.35008258  0.11851363  0.26821743     1.04700
O187        O  0.35084815  0.07702604  0.11670702    -0.80100
O188        O  0.28715415  0.09026203  0.17136874    -0.67700
Ni189      Ni  0.34913698  0.24024000  0.12689593     1.34900
C190        C  0.26726195  0.12000699  0.17758179     0.83400
O191        O  0.38170212  0.17355528  0.05624592    -0.80600
O192        O  0.34955002  0.22937028  0.05636299    -0.90900
C193        C  0.38678257  0.07571149  0.11427528     0.83000
O194        O  0.40233754  0.23431960  0.12772608    -0.69100
O195        O  0.33414890  0.08883060  0.25105805    -0.88400
C196        C  0.42164365  0.21088148  0.15200389     0.83900
C197        C  0.36686948  0.20198974  0.03410480     1.05400
H198        H  0.38482649  0.12875032  0.19178152     0.37200
O199        O  0.36023712  0.12987271  0.17708686    -1.11000
O200        O  0.28198664  0.15175223  0.18794489    -0.67700
Ni201      Ni  0.33226270  0.17090424  0.20002401     1.26300
O202        O  0.41461402  0.17550187  0.14990576    -0.67900
O203        O  0.33271987  0.15013652  0.26398323    -0.80200
C204        C  0.32901830  0.23971757  0.23104105     0.83200
O205        O  0.30637425  0.21399823  0.21956720    -0.67400
Ni206      Ni  0.34032780  0.08051961  0.18316603     1.27400
Ni207      Ni  0.37181989  0.15030422  0.11703495     1.26100
H208        H  0.31264000  0.18378803  0.11894293     0.37800
O209        O  0.39091229  0.23470091  0.69829312    -0.82200
O210        O  0.33824363  0.38085032  0.60359542    -0.66900
O211        O  0.40626227  0.29885805  0.63579853    -1.13500
C212        C  0.39240056  0.36877157  0.76822310     1.04700
O213        O  0.39161843  0.41028744  0.61672393    -0.80100
O214        O  0.45531671  0.39702853  0.67137529    -0.67700
Ni215      Ni  0.39328417  0.24706705  0.62689078     1.34900
C216        C  0.47520510  0.36727750  0.67756506     0.83400
O217        O  0.36073449  0.31376139  0.55624777    -0.80600
O218        O  0.39287825  0.25794095  0.55635912    -0.90900
C219        C  0.35568383  0.41160657  0.61428678     0.83000
O220        O  0.34008560  0.25301200  0.62772065    -0.69100
O221        O  0.40832961  0.39845921  0.75107008    -0.88400
C222        C  0.32079564  0.27644870  0.65202129     0.83900
C223        C  0.37557150  0.28533038  0.53410244     1.05400
H224        H  0.35764243  0.35855925  0.69179023     0.37200
O225        O  0.38222946  0.35743276  0.67708907    -1.11000
O226        O  0.46047701  0.33553002  0.68791017    -0.67700
Ni227      Ni  0.41019867  0.31639085  0.70000984     1.26300
O228        O  0.32783165  0.31182632  0.64992140    -0.67900
O229        O  0.40976518  0.33715139  0.76397249    -0.80200
C230        C  0.41341951  0.24758392  0.73102606     0.83200
O231        O  0.43607747  0.27328582  0.71953361    -0.67400
Ni232      Ni  0.40214534  0.40678135  0.68318042     1.27400
Ni233      Ni  0.37062996  0.33700838  0.61703701     1.26100
H234        H  0.42979839  0.30350518  0.61892257     0.37800
O235        O  0.35088534  0.32707213  0.92774858    -0.82200
O236        O  0.30641724  0.46407015  0.82494743    -0.66900
O237        O  0.36027339  0.37992492  0.86738047    -1.13500
C238        C  0.36690272  0.45201518  0.01036950     1.04700
O239        O  0.35158235  0.00265551  0.84619119    -0.80100
O240        O  0.40239719  0.48435032  0.91677404    -0.67700
Ni241      Ni  0.34035817  0.33057616  0.86129287     1.34900
C242        C  0.42169885  0.46091524  0.89248566     0.83400
O243        O  0.33273072  0.40020677  0.78049984    -0.80600
O244        O  0.33416652  0.33889932  0.79340398    -0.90900
C245        C  0.32907853  0.98977183  0.81345641     0.83000
O246        O  0.28719069  0.34032592  0.87311798    -0.69100
O247        O  0.34959297  0.47940383  0.98811622    -0.88400
C248        C  0.26729897  0.37007567  0.86694147     0.83900
C249        C  0.35009512  0.36858647  0.77624868     1.05400
H250        H  0.31269564  0.43384157  0.92555021     0.37200
O251        O  0.33623123  0.43849301  0.90867503    -1.11000
O252        O  0.41466265  0.42553750  0.89456847    -0.67700
Ni253      Ni  0.37186553  0.40034604  0.92743492     1.26300
O254        O  0.28202127  0.40182142  0.85657374    -0.67900
O255        O  0.38175095  0.42359069  0.98822367    -0.80200
C256        C  0.38681866  0.32575131  0.93018689     0.83200
O257        O  0.40425900  0.35650803  0.94087440    -0.67400
Ni258      Ni  0.34919891  0.99028563  0.91758915     1.27400
Ni259      Ni  0.33229751  0.42096446  0.84446425     1.26100
H260        H  0.38486132  0.37880262  0.85268067     0.37800
O261        O  0.38027005  0.26324169  0.44826498    -0.82200
O262        O  0.23402473  0.21052629  0.35381607    -0.66900
O263        O  0.31605831  0.27857102  0.38583822    -1.13500
C264        C  0.24631471  0.26479651  0.51840037     1.04700
O265        O  0.20459032  0.26388591  0.36699791    -0.80100
O266        O  0.21792880  0.32761640  0.42151399    -0.67700
Ni267      Ni  0.36784167  0.26559680  0.37687630     1.34900
C268        C  0.24768452  0.34751743  0.42761743     0.83400
O269        O  0.30106035  0.23304896  0.30632288    -0.80600
O270        O  0.35690346  0.26517067  0.30636644    -0.90900
C271        C  0.20327100  0.22795361  0.36454386     0.83000
O272        O  0.36191419  0.21239814  0.37773693    -0.69100
O273        O  0.21661330  0.28072112  0.50128926    -0.88400
C274        C  0.33847196  0.19308279  0.40200071     0.83900
C275        C  0.32948794  0.24787221  0.28414736     1.05400
H276        H  0.25643539  0.22996099  0.44196525     0.37200
O277        O  0.25753497  0.25454327  0.42725397    -1.11000
O278        O  0.27944262  0.33280791  0.43794869    -0.67700
Ni279      Ni  0.29860454  0.28254305  0.45007319     1.26300
O280        O  0.30309748  0.20013712  0.39996587    -0.67900
O281        O  0.27793159  0.28215388  0.51407873    -0.80200
C282        C  0.36742448  0.28577645  0.48098812     0.83200
O283        O  0.34173404  0.30844132  0.46948555    -0.67400
Ni284      Ni  0.20819164  0.27445860  0.43343248     1.27400
Ni285      Ni  0.27788118  0.24293650  0.36715792     1.26100
H286        H  0.31139972  0.30210006  0.36895316     0.37800
O287        O  0.28803765  0.22332585  0.67790828    -0.82200
O288        O  0.15103273  0.17877508  0.57509430    -0.66900
O289        O  0.23515173  0.23267597  0.61756180    -1.13500
C290        C  0.16305061  0.23936396  0.76058549     1.04700
O291        O  0.11237795  0.22386083  0.59640542    -0.80100
O292        O  0.13068270  0.27475373  0.66690132    -0.67700
Ni293      Ni  0.28451343  0.21277554  0.61146003     1.34900
C294        C  0.15413343  0.29408009  0.64266395     0.83400
O295        O  0.21487631  0.20513490  0.53067962    -0.75800
O296        O  0.27618483  0.20656937  0.54358076    -0.90900
C297        C  0.12526360  0.20137155  0.56365292     0.83000
O298        O  0.27478398  0.15959551  0.62326187    -0.69100
O299        O  0.13567308  0.22202781  0.73833800    -0.88400
C300        C  0.24504120  0.13969917  0.61702372     0.83900
C301        C  0.24649883  0.22249694  0.52643123     1.05400
H302        H  0.18125718  0.18507564  0.67573871     0.37200
O303        O  0.17659214  0.20861039  0.65886911    -1.11000
O304        O  0.18951570  0.28705426  0.64476426    -0.67700
Ni305      Ni  0.21473495  0.24426715  0.67762386     1.26300
O306        O  0.21328835  0.15442331  0.60670588    -0.67900
O307        O  0.19150350  0.25415894  0.73843496    -0.80200
C308        C  0.28933457  0.25926388  0.68030575     0.83200
O309        O  0.25857326  0.27668276  0.69102973    -0.67400
Ni310      Ni  0.12479137  0.22155064  0.66780398     1.27400
Ni311      Ni  0.19411868  0.20468905  0.59464090     1.26100
H312        H  0.23626302  0.25726344  0.60286153     0.37800
O313        O  0.10157889  0.00259815  0.69815300    -0.82200
O314        O  0.15436496  0.35633206  0.60370392    -0.66900
O315        O  0.08630191  0.43835103  0.63573938    -1.13500
C316        C  0.10010157  0.36857856  0.76827627     1.04700
O317        O  0.10100954  0.32687923  0.61686926    -0.80100
O318        O  0.03726533  0.34020510  0.67140999    -0.67700
Ni319      Ni  0.09925739  0.99014246  0.62676524     1.34900
C320        C  0.01736794  0.36995485  0.67757012     0.83400
O321        O  0.13183251  0.42336356  0.55620160    -0.80600
O322        O  0.09971949  0.47920610  0.55625028    -0.90900
C323        C  0.13694480  0.32557476  0.61444763     0.83000
O324        O  0.15245769  0.48424578  0.62766008    -0.69100
O325        O  0.08417169  0.33888153  0.75115881    -0.88400
C326        C  0.17179163  0.46079764  0.65188818     0.83900
C327        C  0.11703650  0.45180497  0.53402956     1.05400
H328        H  0.13493095  0.37873131  0.69184198     0.37200
O329        O  0.11034472  0.37982778  0.67713636    -1.11000
O330        O  0.03208543  0.40171219  0.68789017    -0.67700
Ni331      Ni  0.08234852  0.42088713  0.69998178     1.26300
O332        O  0.16474370  0.42541913  0.64984428    -0.67900
O333        O  0.08274949  0.40019724  0.76397495    -0.80200
C334        C  0.07906117  0.98974697  0.73089603     0.83200
O335        O  0.05643991  0.46399938  0.71943951    -0.67400
Ni336      Ni  0.09043044  0.33047549  0.68330256     1.27400
Ni337      Ni  0.12194588  0.40018336  0.61704318     1.26100
H338        H  0.06277034  0.43368187  0.61886358     0.37800
O339        O  0.14149601  0.41047284  0.92770679    -0.82200
O340        O  0.18606369  0.27334801  0.82514813    -0.66900
O341        O  0.13215927  0.35752060  0.86744765    -1.13500
C342        C  0.12543454  0.28553791  0.01055970     1.04700
O343        O  0.14092132  0.23475243  0.84642486    -0.80100
O344        O  0.09002677  0.25310798  0.91690194    -0.67700
Ni345      Ni  0.15207261  0.40687310  0.86127282     1.34900
C346        C  0.07070212  0.27655851  0.89266561     0.83400
O347        O  0.15975126  0.33714726  0.78061017    -0.80600
O348        O  0.15832667  0.39846425  0.79341700    -0.90900
C349        C  0.16344455  0.24760290  0.81368604     0.83000
O350        O  0.20524103  0.39714647  0.87314646    -0.69100
O351        O  0.14274874  0.25813498  0.98833719    -0.88400
C352        C  0.22513667  0.36739627  0.86697947     0.83900
C353        C  0.14239794  0.36876501  0.77630468     1.05400
H354        H  0.17972455  0.30366048  0.92572670     0.37200
O355        O  0.15619324  0.29899467  0.90884871    -1.11000
O356        O  0.07775065  0.31193690  0.89472460    -0.67700
Ni357      Ni  0.12054985  0.33716582  0.92754093     1.26300
O358        O  0.21041571  0.33563478  0.85668825    -0.67900
O359        O  0.11065249  0.31398656  0.98838609    -0.80200
C360        C  0.10556003  0.41177836  0.93012894     0.83200
O361        O  0.08813782  0.38102259  0.94087609    -0.67400
Ni362      Ni  0.14322766  0.24720504  0.91781747     1.27400
Ni363      Ni  0.16015228  0.31645924  0.84460461     1.26100
H364        H  0.10757468  0.35861856  0.85273969     0.37800
O365        O  0.36218943  0.22408858  0.94826962    -0.82200
O366        O  0.50842850  0.27680478  0.85377061    -0.66900
O367        O  0.42639992  0.20876081  0.88583249    -1.13500
C368        C  0.49618171  0.22255267  0.01836063     1.04700
O369        O  0.03786159  0.22344289  0.86693562    -0.80100
O370        O  0.02453357  0.15971771  0.92147088    -0.67700
Ni371      Ni  0.37461420  0.22173143  0.87688006     1.34900
C372        C  0.49477984  0.13981853  0.92759910     0.83400
O373        O  0.44137970  0.25427913  0.80630374    -0.80600
O374        O  0.38554248  0.22214870  0.80636757    -0.90900
C375        C  0.03918225  0.25937550  0.86449455     0.83000
O376        O  0.38054843  0.27492997  0.87773368    -0.69100
O377        O  0.02587795  0.20662629  0.00123600    -0.88400
C378        C  0.40399161  0.29424291  0.90199937     0.83900
C379        C  0.41295273  0.23944623  0.78413743     1.05400
H380        H  0.48604062  0.25737742  0.94192891     0.37200
O381        O  0.48493420  0.23279196  0.92721801    -1.11000
O382        O  0.46302560  0.15453073  0.93794431    -0.67700
Ni383      Ni  0.44386933  0.20479918  0.95006242     1.26300
O384        O  0.43936623  0.28719452  0.89994921    -0.67900
O385        O  0.46456199  0.20519689  0.01405721    -0.80200
C386        C  0.37503949  0.20155897  0.98099582     0.83200
O387        O  0.40074384  0.17890540  0.96950310    -0.67400
Ni388      Ni  0.03427816  0.21287619  0.93337330     1.27400
Ni389      Ni  0.46457354  0.24439536  0.86713127     1.26100
H390        H  0.43105643  0.18522982  0.86895151     0.37800
O391        O  0.45441837  0.26400620  0.17785331    -0.82200
O392        O  0.09145063  0.30856807  0.07510915    -0.66900
O393        O  0.00732054  0.25466051  0.11752885    -1.13500
C394        C  0.07938832  0.24795251  0.26058054     1.04700
O395        O  0.13008422  0.26346528  0.09641219    -0.80100
O396        O  0.11177842  0.21257490  0.16691168    -0.67700
Ni397      Ni  0.45796109  0.27456160  0.11140815     1.34900
C398        C  0.08833112  0.19324336  0.14267751     0.83400
O399        O  0.02762210  0.28221113  0.03065758    -0.80600
O400        O  0.46631051  0.28077849  0.04353458    -0.90900
C401        C  0.11720547  0.28595898  0.06365965     0.83000
O402        O  0.46768720  0.32774046  0.12322495    -0.69100
O403        O  0.10676971  0.26529339  0.23834422    -0.88400
C404        C  0.99743121  0.34763815  0.11700373     0.83900
C405        C  0.99599989  0.26485135  0.02639342     1.05400
H406        H  0.06119964  0.30225552  0.17573685     0.37200
O407        O  0.06586690  0.27872233  0.15886531    -1.11000
O408        O  0.05294874  0.20027556  0.14475490    -0.67700
Ni409      Ni  0.02771919  0.24306484  0.17759964     1.26300
O410        O  0.02918667  0.33291611  0.10669459    -0.67900
O411        O  0.05093274  0.23317150  0.23842108    -0.80200
C412        C  0.45311768  0.22806887  0.18025987     0.83200
O413        O  0.98387739  0.21064820  0.19098508    -0.67400
Ni414      Ni  0.11766434  0.26577747  0.16781191     1.27400
Ni415      Ni  0.04835910  0.28265149  0.09462993     1.26100
H416        H  0.00621528  0.23007213  0.10282403     0.37800
O417        O  0.10097663  0.57682851  0.42776188    -0.82200
O418        O  0.05639832  0.71391144  0.32511226    -0.66900
O419        O  0.11030990  0.62976360  0.36747288    -1.13500
C420        C  0.11701491  0.70177545  0.51055966     1.04700
O421        O  0.10150285  0.75254384  0.34642473    -0.80100
O422        O  0.15240113  0.73420948  0.41690454    -0.67700
Ni423      Ni  0.09040021  0.58040522  0.36132637     1.34900
C424        C  0.17174238  0.71076052  0.39268690     0.83400
O425        O  0.08272739  0.65009970  0.28062294    -0.80600
O426        O  0.08415259  0.58878646  0.29346531    -0.90900
C427        C  0.07899842  0.73968092  0.31367306     0.83000
O428        O  0.03722896  0.59013206  0.37319083    -0.69100
O429        O  0.09968202  0.72916516  0.48833588    -0.88400
C430        C  0.01733280  0.61987886  0.36699818     0.83900
C431        C  0.10008172  0.61848018  0.27633837     1.05400
H432        H  0.06272593  0.68362114  0.42571991     0.37200
O433        O  0.08625763  0.68829425  0.40884553    -1.11000
O434        O  0.16470294  0.67537901  0.39474178    -0.67700
Ni435      Ni  0.12191006  0.65013701  0.42755601     1.26300
O436        O  0.03205372  0.65163543  0.35668598    -0.67900
O437        O  0.13180158  0.67332838  0.48839078    -0.80200
C438        C  0.13691368  0.57553131  0.43016565     0.83200
O439        O  0.15433161  0.60629108  0.44090650    -0.67400
Ni440      Ni  0.09919853  0.74008931  0.41781559     1.27400
Ni441      Ni  0.08231498  0.67081240  0.34460420     1.26100
H442        H  0.13489799  0.62866600  0.35276892     0.37800
O443        O  0.14085942  0.98470000  0.19814781    -0.82200
O444        O  0.08810375  0.63098177  0.10373957    -0.66900
O445        O  0.15615122  0.54894147  0.13573430    -1.13500
C446        C  0.14237798  0.61866785  0.26831048     1.04700
O447        O  0.14146072  0.66042648  0.11692984    -0.80100
O448        O  0.20520333  0.64707720  0.17146042    -0.67700
Ni449      Ni  0.14317907  0.99715882  0.12675839     1.34900
C450        C  0.22510041  0.61732340  0.17758947     0.83400
O451        O  0.11062009  0.56395621  0.05620870    -0.80600
O452        O  0.14271765  0.00810544  0.05624615    -0.90900
C453        C  0.10552615  0.66173585  0.11449080     0.83000
O454        O  0.08997947  0.00307233  0.12765945    -0.69100
O455        O  0.15830523  0.64837225  0.25121076    -0.88400
C456        C  0.07065782  0.52651761  0.15190369     0.83900
C457        C  0.12541400  0.53551620  0.03402937     1.05400
H458        H  0.10754032  0.60855183  0.19187337     0.37200
O459        O  0.13212481  0.60745745  0.17716267    -1.11000
O460        O  0.21038357  0.58555984  0.18788080    -0.67700
Ni461      Ni  0.16012048  0.56638657  0.19997982     1.26300
O462        O  0.07771094  0.56189408  0.14986034    -0.67900
O463        O  0.15973168  0.58705237  0.26398548    -0.80200
C464        C  0.16339347  0.99754012  0.23087977     0.83200
O465        O  0.18602867  0.52326479  0.21940247    -0.67400
Ni466      Ni  0.15204007  0.65680567  0.18336076     1.27400
Ni467      Ni  0.12051407  0.58712151  0.11705991     1.26100
H468        H  0.17968162  0.55360617  0.11885309     0.37800
O469        O  0.11235832  0.97386446  0.44818251    -0.82200
O470        O  0.25852394  0.52664946  0.35349120    -0.66900
O471        O  0.17654960  0.95858897  0.38569945    -1.13500
C472        C  0.24648432  0.97250202  0.51811145     1.04700
O473        O  0.28797975  0.97328895  0.36660865    -0.80100
O474        O  0.27474519  0.90957549  0.42128805    -0.67700
Ni475      Ni  0.12474891  0.97153526  0.37678062     1.34900
C476        C  0.24500288  0.88967998  0.42753069     0.83400
O477        O  0.19144186  0.00412981  0.30612736    -0.80600
O478        O  0.13561673  0.97199112  0.30624253    -0.90900
C479        C  0.28928422  0.50922438  0.36420092     0.83000
O480        O  0.13065285  0.52473704  0.37766008    -0.69100
O481        O  0.27616914  0.95657575  0.50095309    -0.88400
C482        C  0.15410080  0.54405361  0.40191376     0.83900
C483        C  0.16299246  0.98932226  0.28398483     1.05400
H484        H  0.23623701  0.50724600  0.44168010     0.37200
O485        O  0.23511865  0.98265677  0.42698056    -1.11000
O486        O  0.21325243  0.90440539  0.43785820    -0.67700
Ni487      Ni  0.19409035  0.95467591  0.44992022     1.26300
O488        O  0.18948251  0.53703114  0.39979884    -0.67900
O489        O  0.21486172  0.95513602  0.51387586    -0.80200
C490        C  0.12525184  0.95137811  0.48093238     0.83200
O491        O  0.15100584  0.92876880  0.46947942    -0.67400
Ni492      Ni  0.28447837  0.96275780  0.43306453     1.27400
Ni493      Ni  0.21468782  0.99424281  0.36692687     1.26100
H494        H  0.18120948  0.93505227  0.36883228     0.37800
O495        O  0.20464662  0.51391313  0.67758290    -0.82200
O496        O  0.34174866  0.55844259  0.57500150    -0.66900
O497        O  0.25755799  0.50456288  0.61728497    -1.13500
C498        C  0.32955297  0.99790480  0.76034604     1.04700
O499        O  0.38028278  0.51323662  0.59621086    -0.80100
O500        O  0.36194347  0.96241376  0.66676856    -0.67700
Ni501      Ni  0.20821617  0.52448053  0.61114352     1.34900
C502        C  0.33850713  0.94310791  0.64248469     0.83400
O503        O  0.27792038  0.53216283  0.53044538    -0.80600
O504        O  0.21660605  0.53072832  0.54327632    -0.90900
C505        C  0.36742673  0.53576633  0.56348956     0.83000
O506        O  0.21796642  0.57763833  0.62304937    -0.69100
O507        O  0.35696089  0.51520546  0.73811719    -0.88400
C508        C  0.24772164  0.59753717  0.61693022     0.83900
C509        C  0.24630141  0.51480408  0.52614411     1.05400
H510        H  0.31144420  0.55211641  0.67554895     0.37200
O511        O  0.31609754  0.52858710  0.65866240    -1.11000
O512        O  0.30313250  0.95015774  0.64452859    -0.67700
Ni513      Ni  0.27792844  0.49295296  0.67736366     1.26300
O514        O  0.27947328  0.58282541  0.60657232    -0.67900
O515        O  0.30113192  0.98306289  0.73817907    -0.80200
C516        C  0.20332349  0.97798054  0.68003176     0.83200
O517        O  0.23407810  0.96054661  0.69073671    -0.67400
Ni518      Ni  0.36788154  0.51561069  0.66760325     1.27400
Ni519      Ni  0.29862062  0.53255564  0.59443843     1.26100
H520        H  0.25644808  0.97997859  0.60257265     0.37800
O521        O  0.03780970  0.97340737  0.17761680    -0.82200
O522        O  0.40073049  0.92889801  0.07498457    -0.66900
O523        O  0.48491087  0.98277386  0.11730575    -1.13500
C524        C  0.41289368  0.98940889  0.26035303     1.04700
O525        O  0.36217848  0.97408760  0.09620540    -0.80100
O526        O  0.38052007  0.52490911  0.16676933    -0.67700
Ni527      Ni  0.03425437  0.96285664  0.11117232     1.34900
C528        C  0.40395895  0.54421464  0.14248780     0.83400
O529        O  0.46456561  0.95519029  0.03045585    -0.80600
O530        O  0.02587879  0.95662606  0.04329995    -0.90900
C531        C  0.37503947  0.95156272  0.06348161     0.83000
O532        O  0.02450550  0.90969716  0.12305469    -0.69100
O533        O  0.38548779  0.97211215  0.23811397    -0.88400
C534        C  0.49475106  0.88980016  0.11692426     0.83900
C535        C  0.49618461  0.97255137  0.02616648     1.05400
H536        H  0.43101549  0.93520881  0.17554339     0.37200
O537        O  0.42636337  0.95874097  0.15866237    -1.11000
O538        O  0.43933381  0.53717014  0.14454764    -0.67700
Ni539      Ni  0.46452962  0.99437257  0.17738244     1.26300
O540        O  0.46300042  0.90451418  0.10656670    -0.67900
O541        O  0.44131625  0.00425606  0.23819423    -0.80200
C542        C  0.03913465  0.50933763  0.18006491     0.83200
O543        O  0.50838087  0.52677228  0.19077388    -0.67400
Ni544      Ni  0.37457683  0.97171267  0.16759789     1.27400
Ni545      Ni  0.44385259  0.95478495  0.09444190     1.26100
H546        H  0.48602434  0.50735744  0.10259970     0.37800
O547        O  0.13010484  0.51346992  0.94817747    -0.82200
O548        O  0.48393761  0.96067624  0.85352978    -0.66900
O549        O  0.06591322  0.52874245  0.88570164    -1.13500
C550        C  0.99600065  0.51485408  0.01813595     1.04700
O551        O  0.45447781  0.51403739  0.86664849    -0.80100
O552        O  0.46771959  0.57775937  0.92130147    -0.67700
Ni553      Ni  0.11771214  0.51579505  0.87677552     1.34900
C554        C  0.99746262  0.59765680  0.92752810     0.83400
O555        O  0.05100954  0.98319250  0.80614458    -0.80600
O556        O  0.10683735  0.51532595  0.80623943    -0.90900
C557        C  0.45317621  0.97810025  0.86423693     0.83000
O558        O  0.11181834  0.96259374  0.87766310    -0.69100
O559        O  0.46631413  0.53077995  0.00098328    -0.88400
C560        C  0.08837094  0.94327135  0.90190947     0.83900
C561        C  0.07946055  0.99798879  0.78399388     1.05400
H562        H  0.00623903  0.98009311  0.94170595     0.37200
O563        O  0.00735120  0.50468021  0.92700465    -1.11000
O564        O  0.02921545  0.58293470  0.93785232    -0.67700
Ni565      Ni  0.04838219  0.53266760  0.94992622     1.26300
O566        O  0.05298911  0.95030021  0.89981400    -0.67900
O567        O  0.02762223  0.53221931  0.01388829    -0.80200
C568        C  0.11721439  0.53595870  0.98092703     0.83200
O569        O  0.09147018  0.55857701  0.96946853    -0.67400
Ni570      Ni  0.45799106  0.52457966  0.93310015     1.27400
Ni571      Ni  0.02777346  0.99308742  0.86694710     1.26100
H572        H  0.06125140  0.55227678  0.86882889     0.37800
O573        O  0.39157985  0.66023818  0.42772541    -0.82200
O574        O  0.43604029  0.52320818  0.32497396    -0.66900
O575        O  0.38219552  0.60737377  0.36737271    -1.13500
C576        C  0.37554601  0.53530037  0.51037215     1.04700
O577        O  0.39085064  0.98465093  0.34619474    -0.80100
O578        O  0.34003871  0.00297363  0.41677877    -0.67700
Ni579      Ni  0.40211873  0.65671696  0.36127359     1.34900
C580        C  0.32075162  0.52640564  0.39247144     0.83400
O581        O  0.40974831  0.58706804  0.28049920    -0.80600
O582        O  0.40832291  0.64837626  0.29338922    -0.90900
C583        C  0.41336702  0.99752592  0.31346793     0.83000
O584        O  0.45528172  0.64695628  0.37311845    -0.69100
O585        O  0.39284506  0.00790544  0.48811985    -0.88400
C586        C  0.47517049  0.61720281  0.36695192     0.83900
C587        C  0.39238965  0.61868990  0.27623832     1.05400
H588        H  0.42975475  0.55345110  0.42556096     0.37200
O589        O  0.40621985  0.54880531  0.40868207    -1.11000
O590        O  0.32779369  0.56178132  0.39455474    -0.67700
Ni591      Ni  0.37059193  0.58696259  0.42742984     1.26300
O592        O  0.46044592  0.58545806  0.35658471    -0.67900
O593        O  0.36069743  0.56372360  0.48822238    -0.80200
C594        C  0.35564668  0.66156340  0.43016929     0.83200
O595        O  0.33820367  0.63080831  0.44085776    -0.67400
Ni596      Ni  0.39323584  0.99701989  0.41759415     1.27400
Ni597      Ni  0.41016714  0.56632351  0.34447042     1.26100
H598        H  0.35761017  0.60850031  0.35267102     0.37800
O599        O  0.35150852  0.75260826  0.19829593    -0.82200
O600        O  0.40421886  0.60646859  0.10358402    -0.66900
O601        O  0.33617855  0.68844043  0.13581017    -1.13500
C602        C  0.35008357  0.61850968  0.26821658     1.04700
O603        O  0.35084886  0.57702353  0.11670560    -0.80100
O604        O  0.28715479  0.59025920  0.17136764    -0.67700
Ni605      Ni  0.34913670  0.74023738  0.12689592     1.34900
C606        C  0.26726261  0.62000406  0.17758159     0.83400
O607        O  0.38170221  0.67355315  0.05624546    -0.80600
O608        O  0.34954959  0.72936782  0.05636296    -0.90900
C609        C  0.38678331  0.57570925  0.11427443     0.83000
O610        O  0.40233733  0.73431745  0.12772573    -0.69100
O611        O  0.33414972  0.58882689  0.25105676    -0.88400
C612        C  0.42164366  0.71087945  0.15200345     0.83900
C613        C  0.36686942  0.70198763  0.03410457     1.05400
H614        H  0.38482732  0.62874729  0.19178067     0.37200
O615        O  0.36023786  0.62986976  0.17708616    -1.11000
O616        O  0.28198737  0.65174914  0.18794529    -0.67700
Ni617      Ni  0.33226351  0.67090104  0.20002402     1.26300
O618        O  0.41461433  0.67549974  0.14990520    -0.67900
O619        O  0.33272105  0.65013272  0.26398294    -0.80200
C620        C  0.32901865  0.73971467  0.23104129     0.83200
O621        O  0.30637504  0.71399475  0.21956802    -0.67400
Ni622      Ni  0.34032846  0.58051660  0.18316464     1.27400
Ni623      Ni  0.37182032  0.65030177  0.11703443     1.26100
H624        H  0.31264033  0.68378506  0.11894326     0.37800
O625        O  0.39091204  0.73470227  0.69829319    -0.82200
O626        O  0.33824398  0.88085145  0.60359403    -0.66900
O627        O  0.40626217  0.79885917  0.63579819    -1.13500
C628        C  0.39240034  0.86877347  0.76822206     1.04700
O629        O  0.39161896  0.91028831  0.61672239    -0.80100
O630        O  0.45531686  0.89702991  0.67137485    -0.67700
Ni631      Ni  0.39328398  0.74706816  0.62689075     1.34900
C632        C  0.47520513  0.86727881  0.67756470     0.83400
O633        O  0.36073452  0.81376219  0.55624709    -0.80600
O634        O  0.39287820  0.75794174  0.55635898    -0.90900
C635        C  0.35568436  0.91160759  0.61428534     0.83000
O636        O  0.34008542  0.75301320  0.62772015    -0.69100
O637        O  0.40832908  0.89846121  0.75106886    -0.88400
C638        C  0.32079549  0.77644995  0.65202074     0.83900
C639        C  0.37557141  0.78533100  0.53410202     1.05400
H640        H  0.35764217  0.85856086  0.69178932     0.37200
O641        O  0.38222944  0.85743419  0.67708808    -1.11000
O642        O  0.46047687  0.83553133  0.68790948    -0.67700
Ni643      Ni  0.41019846  0.81639240  0.70000941     1.26300
O644        O  0.32783155  0.81182756  0.64992075    -0.67900
O645        O  0.40976522  0.83715345  0.76397166    -0.80200
C646        C  0.41341920  0.74758533  0.73102620     0.83200
O647        O  0.43607704  0.77328745  0.71953395    -0.67400
Ni648      Ni  0.40214538  0.90678277  0.68317903     1.27400
Ni649      Ni  0.37062996  0.83700945  0.61703622     1.26100
H650        H  0.42979814  0.80350612  0.61892235     0.37800
O651        O  0.35088502  0.82707293  0.92774756    -0.82200
O652        O  0.30641768  0.96407149  0.82494742    -0.66900
O653        O  0.36027344  0.87992583  0.86737981    -1.13500
C654        C  0.36690308  0.95201574  0.01036916     1.04700
O655        O  0.35158130  0.50265475  0.84619173    -0.80100
O656        O  0.40239797  0.98435047  0.91677372    -0.67700
Ni657      Ni  0.34035821  0.83057716  0.86129178     1.34900
C658        C  0.42169947  0.96091529  0.89248532     0.83400
O659        O  0.33273033  0.90020805  0.78049944    -0.80600
O660        O  0.33416673  0.83890052  0.79340288    -0.90900
C661        C  0.32907775  0.48977088  0.81345678     0.83000
O662        O  0.28719074  0.84032692  0.87311660    -0.69100
O663        O  0.34959379  0.97940464  0.98811575    -0.88400
C664        C  0.26729907  0.87007677  0.86694080     0.83900
C665        C  0.35009497  0.86858794  0.77624782     1.05400
H666        H  0.31269602  0.93384271  0.92554989     0.37200
O667        O  0.33623168  0.93849393  0.90867465    -1.11000
O668        O  0.41466305  0.92553763  0.89456816    -0.67700
Ni669      Ni  0.37186565  0.90034661  0.92743443     1.26300
O670        O  0.28202140  0.90182265  0.85657369    -0.67900
O671        O  0.38175100  0.92359101  0.98822345    -0.80200
C672        C  0.38681828  0.82575178  0.93018637     0.83200
O673        O  0.40425882  0.85650838  0.94087383    -0.67400
Ni674      Ni  0.34919801  0.49028482  0.91758963     1.27400
Ni675      Ni  0.33229768  0.92096556  0.84446390     1.26100
H676        H  0.38486155  0.87880348  0.85267979     0.37800
O677        O  0.38026986  0.76324166  0.44826477    -0.82200
O678        O  0.23402498  0.71052488  0.35381672    -0.66900
O679        O  0.31605829  0.77857023  0.38583768    -1.13500
C680        C  0.24631471  0.76479705  0.51839996     1.04700
O681        O  0.20459005  0.76388442  0.36699772    -0.80100
O682        O  0.21792848  0.82761611  0.42151258    -0.67700
Ni683      Ni  0.36784163  0.76559599  0.37687598     1.34900
C684        C  0.24768413  0.84751741  0.42761571     0.83400
O685        O  0.30106042  0.73304723  0.30632310    -0.80600
O686        O  0.35690351  0.76516898  0.30636612    -0.90900
C687        C  0.20327107  0.72795204  0.36454414     0.83000
O688        O  0.36191461  0.71239727  0.37773726    -0.69100
O689        O  0.21661322  0.78072144  0.50128875    -0.88400
C690        C  0.33847233  0.69308158  0.40200051     0.83900
C691        C  0.32948806  0.74787015  0.28414735     1.05400
H692        H  0.25643548  0.72996077  0.44196523     0.37200
O693        O  0.25753494  0.75454296  0.42725372    -1.11000
O694        O  0.27944233  0.83280799  0.43794698    -0.67700
Ni695      Ni  0.29860439  0.78254314  0.45007252     1.26300
O696        O  0.30309783  0.70013622  0.39996631    -0.67900
O697        O  0.27793146  0.78215460  0.51407806    -0.80200
C698        C  0.36742427  0.78577669  0.48098765     0.83200
O699        O  0.34173387  0.80844155  0.46948476    -0.67400
Ni700      Ni  0.20819149  0.77445818  0.43343206     1.27400
Ni701      Ni  0.27788126  0.74293542  0.36715794     1.26100
H702        H  0.31139968  0.80209924  0.36895209     0.37800
O703        O  0.28803775  0.72332703  0.67790808    -0.82200
O704        O  0.15103367  0.67877449  0.57509396    -0.66900
O705        O  0.23515191  0.73267662  0.61756137    -1.13500
C706        C  0.16305051  0.73936469  0.76058502     1.04700
O707        O  0.11237798  0.72385948  0.59640501    -0.80100
O708        O  0.13068195  0.77475337  0.66689987    -0.67700
Ni709      Ni  0.28451377  0.71277643  0.61145983     1.34900
C710        C  0.15413286  0.79408013  0.64266327     0.83400
O711        O  0.21487682  0.70513514  0.53067932    -0.75800
O712        O  0.27618532  0.70657014  0.54358051    -0.90900
C713        C  0.12526396  0.70137029  0.56365262     0.83000
O714        O  0.27478488  0.65959622  0.62326182    -0.69100
O715        O  0.13567318  0.72202820  0.73833762    -0.88400
C716        C  0.24504218  0.63969970  0.61702376     0.83900
C717        C  0.24649918  0.72249747  0.52643095     1.05400
H718        H  0.18125781  0.68507597  0.67573841     0.37200
O719        O  0.17659253  0.70861049  0.65886879    -1.11000
O720        O  0.18951519  0.78705445  0.64476373    -0.67700
Ni721      Ni  0.21473497  0.74426771  0.67762337     1.26300
O722        O  0.21328930  0.65442370  0.60670585    -0.67900
O723        O  0.19150345  0.75415953  0.73843446    -0.80200
C724        C  0.28933445  0.75926510  0.68030532     0.83200
O725        O  0.25857298  0.77668382  0.69102902    -0.67400
Ni726      Ni  0.12479157  0.72155018  0.66780357     1.27400
Ni727      Ni  0.19411917  0.70468918  0.59464055     1.26100
H728        H  0.23626301  0.75726387  0.60286123     0.37800
O729        O  0.10157773  0.50259749  0.69815226    -0.82200
O730        O  0.15436472  0.85633239  0.60370405    -0.66900
O731        O  0.08630252  0.93835195  0.63573987    -1.13500
C732        C  0.10010132  0.86857960  0.76827684     1.04700
O733        O  0.10100908  0.82688005  0.61686978    -0.80100
O734        O  0.03726516  0.84020615  0.67141071    -0.67700
Ni735      Ni  0.09925638  0.49014166  0.62676456     1.34900
C736        C  0.01736792  0.86995607  0.67757025     0.83400
O737        O  0.13183298  0.92336422  0.55620204    -0.80600
O738        O  0.09972024  0.97920692  0.55625095    -0.90900
C739        C  0.13694430  0.82557523  0.61444770     0.83000
O740        O  0.15245862  0.98424586  0.62766056    -0.69100
O741        O  0.08417173  0.83888234  0.75115954    -0.88400
C742        C  0.17179230  0.96079762  0.65188882     0.83900
C743        C  0.11703688  0.95180563  0.53403009     1.05400
H744        H  0.13493098  0.87873187  0.69184255     0.37200
O745        O  0.11034469  0.87982849  0.67713680    -1.11000
O746        O  0.03208552  0.90171342  0.68789007    -0.67700
Ni747      Ni  0.08234870  0.92088806  0.69998214     1.26300
O748        O  0.16474417  0.92541917  0.64984480    -0.67900
O749        O  0.08274903  0.90019811  0.76397520    -0.80200
C750        C  0.07906028  0.48974607  0.73089544     0.83200
O751        O  0.05644048  0.96400061  0.71943981    -0.67400
Ni752      Ni  0.09043024  0.83047631  0.68330317     1.27400
Ni753      Ni  0.12194611  0.90018398  0.61704358     1.26100
H754        H  0.06277087  0.93368300  0.61886394     0.37800
O755        O  0.14149672  0.91047357  0.92770773    -0.82200
O756        O  0.18606337  0.77334917  0.82514755    -0.66900
O757        O  0.13215933  0.85752172  0.86744817    -1.13500
C758        C  0.12543445  0.78553835  0.01055978     1.04700
O759        O  0.14092105  0.73475351  0.84642440    -0.80100
O760        O  0.09002664  0.75310904  0.91690181    -0.67700
Ni761      Ni  0.15207270  0.90687425  0.86127354     1.34900
C762        C  0.07070201  0.77655963  0.89266557     0.83400
O763        O  0.15975129  0.83714891  0.78061054    -0.80600
O764        O  0.15832611  0.89846590  0.79341752    -0.90900
C765        C  0.16344424  0.74760402  0.81368554     0.83000
O766        O  0.20524122  0.89714761  0.87314614    -0.69100
O767        O  0.14274855  0.75813548  0.98833699    -0.88400
C768        C  0.22513677  0.86739737  0.86697911     0.83900
C769        C  0.14239765  0.86876649  0.77630523     1.05400
H770        H  0.17972456  0.80366111  0.92572657     0.37200
O771        O  0.15619318  0.79899546  0.90884864    -1.11000
O772        O  0.07775051  0.81193804  0.89472495    -0.67700
Ni773      Ni  0.12054999  0.83716667  0.92754135     1.26300
O774        O  0.21041570  0.83563583  0.85668831    -0.67900
O775        O  0.11065265  0.81398725  0.98838643    -0.80200
C776        C  0.10556073  0.91177926  0.93013005     0.83200
O777        O  0.08813837  0.88102355  0.94087713    -0.67400
Ni778      Ni  0.14322746  0.74720586  0.91781713     1.27400
Ni779      Ni  0.16015219  0.81646042  0.84460467     1.26100
H780        H  0.10757469  0.85861982  0.85274037     0.37800
O781        O  0.36218929  0.72408695  0.94826959    -0.82200
O782        O  0.50842828  0.77680574  0.85377065    -0.66900
O783        O  0.42640023  0.70876090  0.88583231    -1.13500
C784        C  0.49618216  0.72255315  0.01836029     1.04700
O785        O  0.03786165  0.72344397  0.86693514    -0.80100
O786        O  0.02453433  0.65971847  0.92147041    -0.67700
Ni787      Ni  0.37461434  0.72173089  0.87688001     1.34900
C788        C  0.49478074  0.63981905  0.92759846     0.83400
O789        O  0.44137970  0.75427982  0.80630380    -0.80600
O790        O  0.38554261  0.72214921  0.80636749    -0.90900
C791        C  0.03918216  0.75937660  0.86449435     0.83000
O792        O  0.38054778  0.77492952  0.87773484    -0.69100
O793        O  0.02587841  0.70662717  0.00123550    -0.88400
C794        C  0.40399116  0.79424290  0.90199969     0.83900
C795        C  0.41295268  0.73944709  0.78413746     1.05400
H796        H  0.48604045  0.75737778  0.94192879     0.37200
O797        O  0.48493431  0.73279257  0.92721786    -1.11000
O798        O  0.46302644  0.65453103  0.93794366    -0.67700
Ni799      Ni  0.44386980  0.70479921  0.95006217     1.26300
O800        O  0.43936583  0.78719476  0.89994922    -0.67900
O801        O  0.46456262  0.70519701  0.01405688    -0.80200
C802        C  0.37503981  0.70155749  0.98099567     0.83200
O803        O  0.40074480  0.67890466  0.96950296    -0.67400
Ni804      Ni  0.03427838  0.71287713  0.93337279     1.27400
Ni805      Ni  0.46457355  0.74439589  0.86713118     1.26100
H806        H  0.43105697  0.68522996  0.86895119     0.37800
O807        O  0.45441801  0.76400451  0.17785330    -0.82200
O808        O  0.09145043  0.80856819  0.07510956    -0.66900
O809        O  0.00732044  0.75465992  0.11752870    -1.13500
C810        C  0.07938830  0.74795036  0.26058010     1.04700
O811        O  0.13008393  0.76346515  0.09641207    -0.80100
O812        O  0.11177881  0.71257405  0.16691113    -0.67700
Ni813      Ni  0.45796093  0.77456100  0.11140837     1.34900
C814        C  0.08833155  0.69324214  0.14267738     0.83400
O815        O  0.02762178  0.78221186  0.03065793    -0.80600
O816        O  0.46631034  0.78077855  0.04353487    -0.90900
C817        C  0.11720526  0.78595912  0.06365978     0.83000
O818        O  0.46768693  0.82774002  0.12322604    -0.69100
O819        O  0.10676953  0.76529182  0.23834416    -0.88400
C820        C  0.99743085  0.84763796  0.11700523     0.83900
C821        C  0.99599977  0.76485180  0.02639351     1.05400
H822        H  0.06119935  0.80225440  0.17573747     0.37200
O823        O  0.06586672  0.77872146  0.15886551    -1.11000
O824        O  0.05294914  0.70027451  0.14475410    -0.67700
Ni825      Ni  0.02771922  0.74306356  0.17759924     1.26300
O826        O  0.02918638  0.83291599  0.10669603    -0.67900
O827        O  0.05093278  0.73316955  0.23842038    -0.80200
C828        C  0.45311765  0.72806709  0.18025935     0.83200
O829        O  0.98387757  0.71064656  0.19098413    -0.67400
Ni830      Ni  0.11766415  0.76577670  0.16781189     1.27400
Ni831      Ni  0.04835889  0.78265143  0.09463022     1.26100
H832        H  0.00621533  0.73007184  0.10282377     0.37800
O833        O  0.60097569  0.07683085  0.42776043    -0.82200
O834        O  0.55639773  0.21391513  0.32511360    -0.66900
O835        O  0.61030913  0.12976657  0.36747231    -1.13500
C836        C  0.61701487  0.20177727  0.51055989     1.04700
O837        O  0.60150313  0.25254665  0.34642521    -0.80100
O838        O  0.65240139  0.23421142  0.41690464    -0.67700
Ni839      Ni  0.59039949  0.08040831  0.36132490     1.34900
C840        C  0.67174234  0.21076233  0.39268682     0.83400
O841        O  0.58272636  0.15010379  0.28062275    -0.80600
O842        O  0.58415179  0.08879043  0.29346400    -0.90900
C843        C  0.57899828  0.23968400  0.31367380     0.83000
O844        O  0.53722830  0.09013500  0.37318949    -0.69100
O845        O  0.59968247  0.22916742  0.48833633    -0.88400
C846        C  0.51733216  0.11988192  0.36699785     0.83900
C847        C  0.60008080  0.11848440  0.27633757     1.05400
H848        H  0.56272573  0.18362411  0.42572022     0.37200
O849        O  0.58625736  0.18829702  0.40884587    -1.11000
O850        O  0.66470268  0.17538091  0.39474177    -0.67700
Ni851      Ni  0.62190952  0.15013930  0.42755572     1.26300
O852        O  0.53205307  0.15163868  0.35668635    -0.67900
O853        O  0.63180121  0.17333013  0.48839079    -0.80200
C854        C  0.63691271  0.07553338  0.43016492     0.83200
O855        O  0.65433075  0.10629306  0.44090576    -0.67400
Ni856      Ni  0.59919890  0.24009192  0.41781610     1.27400
Ni857      Ni  0.58231431  0.17081574  0.34460439     1.26100
H858        H  0.63489725  0.12866904  0.35276815     0.37800
O859        O  0.64086000  0.48469724  0.19814681    -0.82200
O860        O  0.58810302  0.13098353  0.10373884    -0.66900
O861        O  0.65615062  0.04894394  0.13573505    -1.13500
C862        C  0.64237708  0.11867216  0.26830974     1.04700
O863        O  0.64146008  0.16042840  0.11692818    -0.80100
O864        O  0.70520267  0.14708002  0.17145932    -0.67700
Ni865      Ni  0.64317933  0.49715646  0.12675735     1.34900
C866        C  0.72509971  0.11732632  0.17758936     0.83400
O867        O  0.61061928  0.06395760  0.05620931    -0.80600
O868        O  0.64271750  0.50810350  0.05624514    -0.90900
C869        C  0.60552547  0.16173765  0.11448976     0.83000
O870        O  0.58997984  0.50307029  0.12765905    -0.69100
O871        O  0.65830431  0.14837637  0.25120946    -0.88400
C872        C  0.57065723  0.02651953  0.15190410     0.83900
C873        C  0.62541364  0.03551777  0.03403021     1.05400
H874        H  0.60753944  0.10855492  0.19187291     0.37200
O875        O  0.63212407  0.10746034  0.17716226    -1.11000
O876        O  0.71038279  0.08556293  0.18788137    -0.67700
Ni877      Ni  0.66011961  0.06638984  0.19998036     1.26300
O878        O  0.57771031  0.06189608  0.14986087    -0.67900
O879        O  0.65973081  0.08705663  0.26398547    -0.80200
C880        C  0.66339444  0.49753705  0.23087856     0.83200
O881        O  0.68602752  0.02326825  0.21940412    -0.67400
Ni882      Ni  0.65203939  0.15680866  0.18335920     1.27400
Ni883      Ni  0.62051331  0.08712355  0.11706001     1.26100
H884        H  0.67968090  0.05360869  0.11885385     0.37800
O885        O  0.61235857  0.47386363  0.44818178    -0.82200
O886        O  0.75852298  0.02665110  0.35349226    -0.66900
O887        O  0.67655027  0.45858783  0.38569927    -1.13500
C888        C  0.74648470  0.47250275  0.51811142     1.04700
O889        O  0.78798025  0.47328728  0.36660878    -0.80100
O890        O  0.77474575  0.40957508  0.42128951    -0.67700
Ni891      Ni  0.62474955  0.47153398  0.37678000     1.34900
C892        C  0.74500340  0.38967979  0.42753227     0.83400
O893        O  0.69144282  0.50412756  0.30612622    -0.80600
O894        O  0.63561752  0.47198914  0.30624190    -0.90900
C895        C  0.78928346  0.00922612  0.36420130     0.83000
O896        O  0.63065199  0.02473829  0.37766105    -0.69100
O897        O  0.77616948  0.45657615  0.50095349    -0.88400
C898        C  0.65409996  0.04405509  0.40191435     0.83900
C899        C  0.66299337  0.48931985  0.28398388     1.05400
H900        H  0.73623645  0.00724654  0.44168076     0.37200
O901        O  0.73511920  0.48265631  0.42698032    -1.11000
O902        O  0.71325295  0.40440527  0.43785939    -0.67700
Ni903      Ni  0.69409081  0.45467576  0.44992022     1.26300
O904        O  0.68948165  0.03703226  0.39980016    -0.67900
O905        O  0.71486197  0.45513691  0.51387598    -0.80200
C906        C  0.62525208  0.45137759  0.48093201     0.83200
O907        O  0.65100646  0.42876856  0.46947959    -0.67400
Ni908      Ni  0.78447886  0.46275732  0.43306488     1.27400
Ni909      Ni  0.71468863  0.49424141  0.36692616     1.26100
H910        H  0.68121016  0.43505090  0.36883266     0.37800
O911        O  0.70464717  0.01391289  0.67758389    -0.82200
O912        O  0.84174781  0.05844322  0.57500081    -0.66900
O913        O  0.75755800  0.00456255  0.61728502    -1.13500
C914        C  0.82955231  0.49790416  0.76034651     1.04700
O915        O  0.88028300  0.01323810  0.59621013    -0.80100
O916        O  0.86194271  0.46241275  0.66676996    -0.67700
Ni917      Ni  0.70821597  0.02447984  0.61114427     1.34900
C918        C  0.83850650  0.44310705  0.64248572     0.83400
O919        O  0.77791955  0.03216235  0.53044520    -0.80600
O920        O  0.71660525  0.03072734  0.54327688    -0.90900
C921        C  0.86742642  0.03576756  0.56348893     0.83000
O922        O  0.71796561  0.07763774  0.62304957    -0.69100
O923        O  0.85696141  0.01520620  0.73811649    -0.88400
C924        C  0.74772068  0.09753671  0.61693006     0.83900
C925        C  0.74630066  0.01480333  0.52614439     1.05400
H926        H  0.81144411  0.05211686  0.67554828     0.37200
O927        O  0.81609758  0.02858755  0.65866187    -1.11000
O928        O  0.80313192  0.45015736  0.64452877    -0.67700
Ni929      Ni  0.77792887  0.99295310  0.67736357     1.26300
O930        O  0.77947233  0.08282513  0.60657188    -0.67900
O931        O  0.80113123  0.48306247  0.73817935    -0.80200
C932        C  0.70332295  0.47798075  0.68003085     0.83200
O933        O  0.73407743  0.46054678  0.69073628    -0.67400
Ni934      Ni  0.86788181  0.01561174  0.66760249     1.27400
Ni935      Ni  0.79862023  0.03255565  0.59443806     1.26100
H936        H  0.75644806  0.47997884  0.60257240     0.37800
O937        O  0.53781004  0.47340570  0.17761603    -0.82200
O938        O  0.90073078  0.42889774  0.07498437    -0.66900
O939        O  0.98491128  0.48277338  0.11730547    -1.13500
C940        C  0.91289455  0.48940640  0.26035365     1.04700
O941        O  0.86217848  0.47408683  0.09620589    -0.80100
O942        O  0.88051925  0.02491041  0.16676849    -0.67700
Ni943      Ni  0.53425463  0.46285631  0.11117126     1.34900
C944        C  0.90395825  0.04421617  0.14248739     0.83400
O945        O  0.96456552  0.45519113  0.03045523    -0.80600
O946        O  0.52587872  0.45662663  0.04329883    -0.90900
C947        C  0.87503946  0.45156222  0.06348184     0.83000
O948        O  0.52450597  0.40969692  0.12305256    -0.69100
O949        O  0.88548848  0.47211021  0.23811428    -0.88400
C950        C  0.99475148  0.38980011  0.11692248     0.83900
C951        C  0.99618459  0.47255214  0.02616585     1.05400
H952        H  0.93101602  0.43520752  0.17554259     0.37200
O953        O  0.92636392  0.45873981  0.15866221    -1.11000
O954        O  0.93933308  0.03717128  0.14454661    -0.67700
Ni955      Ni  0.96453038  0.49437114  0.17738268     1.26300
O956        O  0.96300083  0.40451410  0.10656528    -0.67900
O957        O  0.94131727  0.50425361  0.23819508    -0.80200
C958        C  0.53913394  0.00933939  0.18006505     0.83200
O959        O  0.00838006  0.02677394  0.19077342    -0.67400
Ni960      Ni  0.87457731  0.47171141  0.16759823     1.27400
Ni961      Ni  0.94385284  0.45478481  0.09444151     1.26100
H962        H  0.98602408  0.00735776  0.10259979     0.37800
O963        O  0.63010508  0.01347147  0.94817844    -0.82200
O964        O  0.98393680  0.46067629  0.85352975    -0.66900
O965        O  0.56591336  0.02874301  0.88570238    -1.13500
C966        C  0.49600042  0.01485328  0.01813637     1.04700
O967        O  0.95447861  0.01403724  0.86664845    -0.80100
O968        O  0.96771890  0.07775877  0.92130222    -0.67700
Ni969      Ni  0.61771247  0.01579622  0.87677648     1.34900
C970        C  0.49746173  0.09765635  0.92752888     0.83400
O971        O  0.55100873  0.48319191  0.80614408    -0.80600
O972        O  0.60683793  0.01532681  0.80624030    -0.90900
C973        C  0.95317548  0.47810036  0.86423718     0.83000
O974        O  0.61181738  0.46259260  0.87766154    -0.69100
O975        O  0.96631384  0.03077885  0.00098360    -0.88400
C976        C  0.58837010  0.44327045  0.90190838     0.83900
C977        C  0.57945974  0.49798806  0.78399321     1.05400
H978        H  0.50623856  0.48009342  0.94170556     0.37200
O979        O  0.50735149  0.00467993  0.92700508    -1.11000
O980        O  0.52921463  0.08293446  0.93785307    -0.67700
Ni981      Ni  0.54838204  0.03266769  0.94992688     1.26300
O982        O  0.55298832  0.45029975  0.89981362    -0.67900
O983        O  0.52762187  0.03221882  0.01388890    -0.80200
C984        C  0.61721411  0.03596000  0.98092791     0.83200
O985        O  0.59146952  0.05857782  0.96946933    -0.67400
Ni986      Ni  0.95799120  0.02457892  0.93310031     1.27400
Ni987      Ni  0.52777292  0.49308720  0.86694669     1.26100
H988        H  0.56125138  0.05227734  0.86882978     0.37800
O989        O  0.89157922  0.16024005  0.42772730    -0.82200
O990        O  0.93603930  0.02321158  0.32497272    -0.66900
O991        O  0.88219473  0.10737662  0.36737334    -1.13500
C992        C  0.87554577  0.03530197  0.51037164     1.04700
O993        O  0.89085108  0.48464816  0.34619538    -0.80100
O994        O  0.84003903  0.50297164  0.41677907    -0.67700
Ni995      Ni  0.90211792  0.15671992  0.36127533     1.34900
C996        C  0.82075104  0.02640755  0.39247137     0.83400
O997        O  0.90974742  0.08707216  0.28049952    -0.80600
O998        O  0.90832181  0.14838029  0.29339068    -0.90900
C999        C  0.91336787  0.49752285  0.31346879     0.83000
O1000       O  0.95528097  0.14695921  0.37311957    -0.69100
O1001       O  0.89284493  0.50790347  0.48812053    -0.88400
C1002       C  0.97516974  0.11720586  0.36695211     0.83900
C1003       C  0.89238869  0.11869403  0.27623923     1.05400
H1004       H  0.92975423  0.05345371  0.42556064     0.37200
O1005       O  0.90621926  0.04880782  0.40868165    -1.11000
O1006       O  0.82779308  0.06178329  0.39455450    -0.67700
Ni1007     Ni  0.87059121  0.08696466  0.42743003     1.26300
O1008       O  0.96044513  0.08546122  0.35658448    -0.67900
O1009       O  0.86069677  0.06372507  0.48822212    -0.80200
C1010       C  0.85564603  0.16156518  0.43017061     0.83200
O1011       O  0.83820292  0.13081008  0.44085868    -0.67400
Ni1012     Ni  0.89323606  0.49701749  0.41759486     1.27400
Ni1013     Ni  0.91016632  0.06632673  0.34447024     1.26100
H1014       H  0.85760934  0.10850329  0.35267172     0.37800
O1015       O  0.85150873  0.25261084  0.19829603    -0.82200
O1016       O  0.90421830  0.10647079  0.10358503    -0.66900
O1017       O  0.83617836  0.18844325  0.13581016    -1.13500
C1018       C  0.85008263  0.11851363  0.26821742     1.04700
O1019       O  0.85084820  0.07702604  0.11670701    -0.80100
O1020       O  0.78715414  0.09026203  0.17136875    -0.67700
Ni1021     Ni  0.84913703  0.24024001  0.12689593     1.34900
C1022       C  0.76726194  0.12000700  0.17758179     0.83400
O1023       O  0.88170207  0.17355524  0.05624589    -0.80600
O1024       O  0.84955007  0.22937031  0.05636300    -0.90900
C1025       C  0.88678262  0.07571149  0.11427529     0.83000
O1026       O  0.90233759  0.23431960  0.12772606    -0.69100
O1027       O  0.83414895  0.08883059  0.25105805    -0.88400
C1028       C  0.92164368  0.21088147  0.15200389     0.83900
C1029       C  0.86686948  0.20198974  0.03410479     1.05400
H1030       H  0.88482632  0.12875035  0.19178139     0.37200
O1031       O  0.86023717  0.12987271  0.17708688    -1.11000
O1032       O  0.78198662  0.15175225  0.18794489    -0.67700
Ni1033     Ni  0.83226271  0.17090424  0.20002399     1.26300
O1034       O  0.91461405  0.17550187  0.14990575    -0.67900
O1035       O  0.83271993  0.15013652  0.26398323    -0.80200
C1036       C  0.82901836  0.23971757  0.23104106     0.83200
O1037       O  0.80637431  0.21399824  0.21956722    -0.67400
Ni1038     Ni  0.84032782  0.08051961  0.18316602     1.27400
Ni1039     Ni  0.87181989  0.15030422  0.11703494     1.26100
H1040       H  0.81264003  0.18378804  0.11894292     0.37800
O1041       O  0.89091227  0.23470089  0.69829313    -0.82200
O1042       O  0.83824369  0.38085033  0.60359541    -0.66900
O1043       O  0.90626228  0.29885804  0.63579855    -1.13500
C1044       C  0.89240056  0.36877158  0.76822310     1.04700
O1045       O  0.89161850  0.41028743  0.61672391    -0.80100
O1046       O  0.95531675  0.39702851  0.67137531    -0.67700
Ni1047     Ni  0.89328414  0.24706704  0.62689079     1.34900
C1048       C  0.97520514  0.36727748  0.67756506     0.83400
O1049       O  0.86073456  0.31376141  0.55624776    -0.80600
O1050       O  0.89287824  0.25794093  0.55635912    -0.90900
C1051       C  0.85568389  0.41160658  0.61428677     0.83000
O1052       O  0.84008557  0.25301199  0.62772064    -0.69100
O1053       O  0.90832957  0.39845924  0.75107008    -0.88400
C1054       C  0.82079564  0.27644870  0.65202131     0.83900
C1055       C  0.87557152  0.28533037  0.53410244     1.05400
H1056       H  0.85764225  0.35855929  0.69179034     0.37200
O1057       O  0.88222950  0.35743277  0.67708904    -1.11000
O1058       O  0.96047703  0.33553000  0.68791016    -0.67700
Ni1059     Ni  0.91019867  0.31639086  0.70000985     1.26300
O1060       O  0.82783167  0.31182630  0.64992140    -0.67900
O1061       O  0.90976522  0.33715142  0.76397248    -0.80200
C1062       C  0.91341950  0.24758392  0.73102606     0.83200
O1063       O  0.93607745  0.27328584  0.71953360    -0.67400
Ni1064     Ni  0.90214536  0.40678135  0.68318041     1.27400
Ni1065     Ni  0.87062998  0.33700838  0.61703703     1.26100
H1066       H  0.92979841  0.30350513  0.61892258     0.37800
O1067       O  0.85088536  0.32707210  0.92774857    -0.82200
O1068       O  0.80641730  0.46407015  0.82494742    -0.66900
O1069       O  0.86027339  0.37992492  0.86738050    -1.13500
C1070       C  0.86690272  0.45201519  0.01036951     1.04700
O1071       O  0.85158237  0.00265548  0.84619118    -0.80100
O1072       O  0.90239719  0.48435035  0.91677402    -0.67700
Ni1073     Ni  0.84035821  0.33057615  0.86129286     1.34900
C1074       C  0.92169884  0.46091525  0.89248566     0.83400
O1075       O  0.83273076  0.40020675  0.78049985    -0.80600
O1076       O  0.83416656  0.33889930  0.79340400    -0.90900
C1077       C  0.82907851  0.98977184  0.81345641     0.83000
O1078       O  0.78719072  0.34032592  0.87311797    -0.69100
O1079       O  0.84959303  0.47940387  0.98811623    -0.88400
C1080       C  0.76729900  0.37007567  0.86694146     0.83900
C1081       C  0.85009515  0.36858645  0.77624868     1.05400
H1082       H  0.81269577  0.43384159  0.92555013     0.37200
O1083       O  0.83623118  0.43849299  0.90867507    -1.11000
O1084       O  0.91466261  0.42553751  0.89456846    -0.67700
Ni1085     Ni  0.87186553  0.40034602  0.92743490     1.26300
O1086       O  0.78202130  0.40182141  0.85657374    -0.67900
O1087       O  0.88175086  0.42359064  0.98822369    -0.80200
C1088       C  0.88681867  0.32575131  0.93018690     0.83200
O1089       O  0.90425899  0.35650804  0.94087443    -0.67400
Ni1090     Ni  0.84919893  0.99028562  0.91758915     1.27400
Ni1091     Ni  0.83229758  0.42096446  0.84446423     1.26100
H1092       H  0.88486153  0.37880259  0.85268057     0.37800
O1093       O  0.88027007  0.26324169  0.44826498    -0.82200
O1094       O  0.73402475  0.21052627  0.35381605    -0.66900
O1095       O  0.81605833  0.27857102  0.38583822    -1.13500
C1096       C  0.74631467  0.26479651  0.51840037     1.04700
O1097       O  0.70459038  0.26388590  0.36699791    -0.80100
O1098       O  0.71792884  0.32761638  0.42151398    -0.67700
Ni1099     Ni  0.86784169  0.26559679  0.37687630     1.34900
C1100       C  0.74768453  0.34751743  0.42761743     0.83400
O1101       O  0.80106037  0.23304897  0.30632287    -0.80600
O1102       O  0.85690350  0.26517067  0.30636645    -0.90900
C1103       C  0.70327103  0.22795360  0.36454386     0.83000
O1104       O  0.86191414  0.21239814  0.37773690    -0.69100
O1105       O  0.71661328  0.28072112  0.50128924    -0.88400
C1106       C  0.83847192  0.19308281  0.40200073     0.83900
C1107       C  0.82948798  0.24787221  0.28414736     1.05400
H1108       H  0.75643543  0.22996101  0.44196528     0.37200
O1109       O  0.75753499  0.25454326  0.42725398    -1.11000
O1110       O  0.77944265  0.33280793  0.43794868    -0.67700
Ni1111     Ni  0.79860454  0.28254306  0.45007319     1.26300
O1112       O  0.80309746  0.20013713  0.39996588    -0.67900
O1113       O  0.77793157  0.28215388  0.51407872    -0.80200
C1114       C  0.86742448  0.28577643  0.48098814     0.83200
O1115       O  0.84173404  0.30844131  0.46948556    -0.67400
Ni1116     Ni  0.70819166  0.27445859  0.43343247     1.27400
Ni1117     Ni  0.77788118  0.24293650  0.36715791     1.26100
H1118       H  0.81139975  0.30210007  0.36895317     0.37800
O1119       O  0.78803760  0.22332585  0.67790827    -0.82200
O1120       O  0.65103270  0.17877505  0.57509433    -0.66900
O1121       O  0.73515173  0.23267597  0.61756180    -1.13500
C1122       C  0.66305056  0.23936396  0.76058549     1.04700
O1123       O  0.61237798  0.22386087  0.59640541    -0.80100
O1124       O  0.63068275  0.27475374  0.66690133    -0.67700
Ni1125     Ni  0.78451341  0.21277553  0.61146002     1.34900
C1126       C  0.65413347  0.29408010  0.64266395     0.83400
O1127       O  0.71487624  0.20513491  0.53067962    -0.75800
O1128       O  0.77618478  0.20656937  0.54358074    -0.90900
C1129       C  0.62526357  0.20137153  0.56365293     0.83000
O1130       O  0.77478401  0.15959549  0.62326186    -0.69100
O1131       O  0.63567303  0.22202783  0.73833800    -0.88400
C1132       C  0.74504121  0.13969917  0.61702372     0.83900
C1133       C  0.74649877  0.22249694  0.52643122     1.05400
H1134       H  0.68125720  0.18507564  0.67573874     0.37200
O1135       O  0.67659215  0.20861038  0.65886912    -1.11000
O1136       O  0.68951573  0.28705427  0.64476425    -0.67700
Ni1137     Ni  0.71473494  0.24426715  0.67762386     1.26300
O1138       O  0.71328838  0.15442333  0.60670587    -0.67900
O1139       O  0.69150348  0.25415892  0.73843496    -0.80200
C1140       C  0.78933454  0.25926388  0.68030576     0.83200
O1141       O  0.75857324  0.27668277  0.69102975    -0.67400
Ni1142     Ni  0.62479137  0.22155066  0.66780397     1.27400
Ni1143     Ni  0.69411867  0.20468904  0.59464091     1.26100
H1144       H  0.73626304  0.25726343  0.60286153     0.37800
O1145       O  0.60157892  0.00259813  0.69815303    -0.82200
O1146       O  0.65436501  0.35633206  0.60370393    -0.66900
O1147       O  0.58630197  0.43835102  0.63573939    -1.13500
C1148       C  0.60010156  0.36857856  0.76827630     1.04700
O1149       O  0.60100956  0.32687923  0.61686925    -0.80100
O1150       O  0.53726527  0.34020511  0.67140996    -0.67700
Ni1151     Ni  0.59925742  0.99014246  0.62676525     1.34900
C1152       C  0.51736791  0.36995487  0.67757012     0.83400
O1153       O  0.63183257  0.42336357  0.55620161    -0.80600
O1154       O  0.59971954  0.47920610  0.55625028    -0.90900
C1155       C  0.63694483  0.32557477  0.61444764     0.83000
O1156       O  0.65245776  0.48424577  0.62766008    -0.69100
O1157       O  0.58417166  0.33888154  0.75115883    -0.88400
C1158       C  0.67179170  0.46079764  0.65188818     0.83900
C1159       C  0.61703652  0.45180495  0.53402956     1.05400
H1160       H  0.63493098  0.37873125  0.69184199     0.37200
O1161       O  0.61034475  0.37982775  0.67713636    -1.11000
O1162       O  0.53208542  0.40171220  0.68789017    -0.67700
Ni1163     Ni  0.58234856  0.42088712  0.69998177     1.26300
O1164       O  0.66474375  0.42541912  0.64984429    -0.67900
O1165       O  0.58274951  0.40019725  0.76397495    -0.80200
C1166       C  0.57906116  0.98974698  0.73089604     0.83200
O1167       O  0.55643996  0.46399938  0.71943949    -0.67400
Ni1168     Ni  0.59043039  0.33047549  0.68330256     1.27400
Ni1169     Ni  0.62194594  0.40018336  0.61704319     1.26100
H1170       H  0.56277040  0.43368187  0.61886358     0.37800
O1171       O  0.64149600  0.41047286  0.92770679    -0.82200
O1172       O  0.68606364  0.27334803  0.82514811    -0.66900
O1173       O  0.63215925  0.35752063  0.86744770    -1.13500
C1174       C  0.62543454  0.28553789  0.01055970     1.04700
O1175       O  0.64092133  0.23475240  0.84642488    -0.80100
O1176       O  0.59002681  0.25310797  0.91690192    -0.67700
Ni1177     Ni  0.65207263  0.40687310  0.86127282     1.34900
C1178       C  0.57070214  0.27655850  0.89266562     0.83400
O1179       O  0.65975124  0.33714725  0.78061020    -0.80600
O1180       O  0.65832671  0.39846424  0.79341702    -0.90900
C1181       C  0.66344451  0.24760292  0.81368604     0.83000
O1182       O  0.70524105  0.39714646  0.87314649    -0.69100
O1183       O  0.64274876  0.25813498  0.98833719    -0.88400
C1184       C  0.72513667  0.36739626  0.86697947     0.83900
C1185       C  0.64239794  0.36876500  0.77630471     1.05400
H1186       H  0.67972458  0.30366049  0.92572664     0.37200
O1187       O  0.65619324  0.29899468  0.90884870    -1.11000
O1188       O  0.57775068  0.31193689  0.89472462    -0.67700
Ni1189     Ni  0.62054985  0.33716583  0.92754094     1.26300
O1190       O  0.71041569  0.33563478  0.85668824    -0.67900
O1191       O  0.61065250  0.31398656  0.98838611    -0.80200
C1192       C  0.60556000  0.41177836  0.93012895     0.83200
O1193       O  0.58813781  0.38102258  0.94087613    -0.67400
Ni1194     Ni  0.64322769  0.24720504  0.91781747     1.27400
Ni1195     Ni  0.66015223  0.31645926  0.84460461     1.26100
H1196       H  0.60757453  0.35861867  0.85273972     0.37800
O1197       O  0.86218937  0.22408853  0.94826960    -0.82200
O1198       O  0.00842852  0.27680478  0.85377060    -0.66900
O1199       O  0.92639996  0.20876081  0.88583250    -1.13500
C1200       C  0.99618180  0.22255267  0.01836063     1.04700
O1201       O  0.53786158  0.22344289  0.86693564    -0.80100
O1202       O  0.52453354  0.15971771  0.92147088    -0.67700
Ni1203     Ni  0.87461422  0.22173142  0.87688006     1.34900
C1204       C  0.99477986  0.13981854  0.92759910     0.83400
O1205       O  0.94137976  0.25427913  0.80630373    -0.80600
O1206       O  0.88554255  0.22214869  0.80636758    -0.90900
C1207       C  0.53918225  0.25937550  0.86449457     0.83000
O1208       O  0.88054849  0.27492997  0.87773368    -0.69100
O1209       O  0.52587783  0.20662626  0.00123599    -0.88400
C1210       C  0.90399165  0.29424292  0.90199937     0.83900
C1211       C  0.91295278  0.23944622  0.78413742     1.05400
H1212       H  0.98604060  0.25737738  0.94192896     0.37200
O1213       O  0.98493424  0.23279195  0.92721803    -1.11000
O1214       O  0.96302564  0.15453073  0.93794432    -0.67700
Ni1215     Ni  0.94386939  0.20479918  0.95006243     1.26300
O1216       O  0.93936628  0.28719454  0.89994921    -0.67900
O1217       O  0.96456209  0.20519686  0.01405719    -0.80200
C1218       C  0.87503949  0.20155898  0.98099582     0.83200
O1219       O  0.90074388  0.17890543  0.96950311    -0.67400
Ni1220     Ni  0.53427808  0.21287618  0.93337331     1.27400
Ni1221     Ni  0.96457358  0.24439536  0.86713127     1.26100
H1222       H  0.93105648  0.18522982  0.86895152     0.37800
O1223       O  0.95441839  0.26400620  0.17785331    -0.82200
O1224       O  0.59145065  0.30856807  0.07510917    -0.66900
O1225       O  0.50732051  0.25466052  0.11752885    -1.13500
C1226       C  0.57938831  0.24795251  0.26058054     1.04700
O1227       O  0.63008421  0.26346527  0.09641220    -0.80100
O1228       O  0.61177836  0.21257490  0.16691174    -0.67700
Ni1229     Ni  0.95796113  0.27456160  0.11140815     1.34900
C1230       C  0.58833111  0.19324337  0.14267749     0.83400
O1231       O  0.52762208  0.28221111  0.03065757    -0.80600
O1232       O  0.96631054  0.28077846  0.04353458    -0.90900
C1233       C  0.61720548  0.28595896  0.06365965     0.83000
O1234       O  0.96768722  0.32774046  0.12322496    -0.69100
O1235       O  0.60676963  0.26529345  0.23834420    -0.88400
C1236       C  0.49743119  0.34763814  0.11700372     0.83900
C1237       C  0.49599985  0.26485135  0.02639343     1.05400
H1238       H  0.56119961  0.30225554  0.17573683     0.37200
O1239       O  0.56586687  0.27872234  0.15886529    -1.11000
O1240       O  0.55294873  0.20027555  0.14475484    -0.67700
Ni1241     Ni  0.52771917  0.24306483  0.17759964     1.26300
O1242       O  0.52918666  0.33291611  0.10669459    -0.67900
O1243       O  0.55093275  0.23317145  0.23842108    -0.80200
C1244       C  0.95311769  0.22806887  0.18025989     0.83200
O1245       O  0.48387739  0.21064819  0.19098508    -0.67400
Ni1246     Ni  0.61766429  0.26577748  0.16781191     1.27400
Ni1247     Ni  0.54835909  0.28265149  0.09462993     1.26100
H1248       H  0.50621522  0.23007213  0.10282405     0.37800
O1249       O  0.60097660  0.57682849  0.42776185    -0.82200
O1250       O  0.55639837  0.71391144  0.32511225    -0.66900
O1251       O  0.61030987  0.62976357  0.36747288    -1.13500
C1252       C  0.61701485  0.70177545  0.51055965     1.04700
O1253       O  0.60150286  0.75254385  0.34642475    -0.80100
O1254       O  0.65240109  0.73420949  0.41690455    -0.67700
Ni1255     Ni  0.59040016  0.58040520  0.36132635     1.34900
C1256       C  0.67174234  0.71076051  0.39268694     0.83400
O1257       O  0.58272735  0.65009969  0.28062293    -0.80600
O1258       O  0.58415250  0.58878647  0.29346529    -0.90900
C1259       C  0.57899847  0.73968092  0.31367305     0.83000
O1260       O  0.53722896  0.59013207  0.37319088    -0.69100
O1261       O  0.59968196  0.72916517  0.48833588    -0.88400
C1262       C  0.51733284  0.61987887  0.36699819     0.83900
C1263       C  0.60008167  0.61848018  0.27633837     1.05400
H1264       H  0.56272589  0.68362113  0.42571987     0.37200
O1265       O  0.58625760  0.68829425  0.40884552    -1.11000
O1266       O  0.66470284  0.67537901  0.39474175    -0.67700
Ni1267     Ni  0.62191000  0.65013700  0.42755600     1.26300
O1268       O  0.53205378  0.65163544  0.35668598    -0.67900
O1269       O  0.63180152  0.67332839  0.48839077    -0.80200
C1270       C  0.63691366  0.57553130  0.43016563     0.83200
O1271       O  0.65433156  0.60629109  0.44090650    -0.67400
Ni1272     Ni  0.59919849  0.74008931  0.41781559     1.27400
Ni1273     Ni  0.58231500  0.67081240  0.34460418     1.26100
H1274       H  0.63489797  0.62866592  0.35276894     0.37800
O1275       O  0.64085948  0.98469999  0.19814780    -0.82200
O1276       O  0.58810377  0.63098178  0.10373953    -0.66900
O1277       O  0.65615122  0.54894149  0.13573427    -1.13500
C1278       C  0.64237797  0.61866784  0.26831050     1.04700
O1279       O  0.64146073  0.66042651  0.11692987    -0.80100
O1280       O  0.70520329  0.64707720  0.17146040    -0.67700
Ni1281     Ni  0.64317906  0.99715880  0.12675840     1.34900
C1282       C  0.72510037  0.61732340  0.17758946     0.83400
O1283       O  0.61061996  0.56395617  0.05620873    -0.80600
O1284       O  0.64271753  0.00810540  0.05624616    -0.90900
C1285       C  0.60552616  0.66173586  0.11449079     0.83000
O1286       O  0.58997949  0.00307233  0.12765950    -0.69100
O1287       O  0.65830523  0.64837224  0.25121078    -0.88400
C1288       C  0.57065775  0.52651760  0.15190372     0.83900
C1289       C  0.62541390  0.53551618  0.03402939     1.05400
H1290       H  0.60754026  0.60855184  0.19187341     0.37200
O1291       O  0.63212475  0.60745745  0.17716269    -1.11000
O1292       O  0.71038351  0.58555985  0.18788076    -0.67700
Ni1293     Ni  0.66012043  0.56638658  0.19997985     1.26300
O1294       O  0.57771084  0.56189409  0.14986030    -0.67900
O1295       O  0.65973169  0.58705237  0.26398551    -0.80200
C1296       C  0.66339351  0.99754013  0.23087977     0.83200
O1297       O  0.68602866  0.52326480  0.21940246    -0.67400
Ni1298     Ni  0.65204005  0.65680568  0.18336078     1.27400
Ni1299     Ni  0.62051400  0.58712149  0.11705993     1.26100
H1300       H  0.67968142  0.55360617  0.11885314     0.37800
O1301       O  0.61235838  0.97386447  0.44818250    -0.82200
O1302       O  0.75852394  0.52664946  0.35349122    -0.66900
O1303       O  0.67654965  0.95858897  0.38569943    -1.13500
C1304       C  0.74648427  0.97250203  0.51811147     1.04700
O1305       O  0.78797976  0.97328894  0.36660866    -0.80100
O1306       O  0.77474518  0.90957549  0.42128804    -0.67700
Ni1307     Ni  0.62474896  0.97153525  0.37678062     1.34900
C1308       C  0.74500289  0.88967997  0.42753069     0.83400
O1309       O  0.69144188  0.00412980  0.30612735    -0.80600
O1310       O  0.63561675  0.97199112  0.30624253    -0.90900
C1311       C  0.78928421  0.50922437  0.36420092     0.83000
O1312       O  0.63065290  0.52473704  0.37766006    -0.69100
O1313       O  0.77616906  0.95657573  0.50095309    -0.88400
C1314       C  0.65410083  0.54405362  0.40191377     0.83900
C1315       C  0.66299247  0.98932228  0.28398483     1.05400
H1316       H  0.73623701  0.50724601  0.44168009     0.37200
O1317       O  0.73511865  0.98265679  0.42698056    -1.11000
O1318       O  0.71325243  0.90440538  0.43785822    -0.67700
Ni1319     Ni  0.69409036  0.95467592  0.44992021     1.26300
O1320       O  0.68948254  0.53703115  0.39979885    -0.67900
O1321       O  0.71486164  0.95513606  0.51387587    -0.80200
C1322       C  0.62525188  0.95137812  0.48093238     0.83200
O1323       O  0.65100588  0.92876879  0.46947942    -0.67400
Ni1324     Ni  0.78447834  0.96275780  0.43306454     1.27400
Ni1325     Ni  0.71468785  0.99424281  0.36692686     1.26100
H1326       H  0.68120955  0.93505227  0.36883226     0.37800
O1327       O  0.70464665  0.51391313  0.67758292    -0.82200
O1328       O  0.84174870  0.55844260  0.57500154    -0.66900
O1329       O  0.75755799  0.50456290  0.61728497    -1.13500
C1330       C  0.82955296  0.99790482  0.76034605     1.04700
O1331       O  0.88028282  0.51323662  0.59621085    -0.80100
O1332       O  0.86194345  0.96241375  0.66676861    -0.67700
Ni1333     Ni  0.70821615  0.52448053  0.61114352     1.34900
C1334       C  0.83850714  0.94310792  0.64248467     0.83400
O1335       O  0.77792035  0.53216285  0.53044540    -0.80600
O1336       O  0.71660599  0.53072831  0.54327631    -0.90900
C1337       C  0.86742674  0.53576633  0.56348956     0.83000
O1338       O  0.71796644  0.57763832  0.62304936    -0.69100
O1339       O  0.85696096  0.51520546  0.73811719    -0.88400
C1340       C  0.74772167  0.59753717  0.61693021     0.83900
C1341       C  0.74630137  0.51480408  0.52614412     1.05400
H1342       H  0.81144426  0.55211641  0.67554895     0.37200
O1343       O  0.81609759  0.52858710  0.65866239    -1.11000
O1344       O  0.80313250  0.95015772  0.64452857    -0.67700
Ni1345     Ni  0.77792849  0.49295296  0.67736366     1.26300
O1346       O  0.77947332  0.58282542  0.60657233    -0.67900
O1347       O  0.80113188  0.98306293  0.73817909    -0.80200
C1348       C  0.70332351  0.97798054  0.68003176     0.83200
O1349       O  0.73407813  0.96054661  0.69073669    -0.67400
Ni1350     Ni  0.86788160  0.51561069  0.66760325     1.27400
Ni1351     Ni  0.79862063  0.53255565  0.59443844     1.26100
H1352       H  0.75644815  0.97997859  0.60257263     0.37800
O1353       O  0.53780975  0.97340735  0.17761680    -0.82200
O1354       O  0.90073050  0.92889806  0.07498458    -0.66900
O1355       O  0.98491088  0.98277387  0.11730575    -1.13500
C1356       C  0.91289369  0.98940890  0.26035302     1.04700
O1357       O  0.86217835  0.97408755  0.09620541    -0.80100
O1358       O  0.88052007  0.52490911  0.16676934    -0.67700
Ni1359     Ni  0.53425438  0.96285665  0.11117232     1.34900
C1360       C  0.90395897  0.54421462  0.14248780     0.83400
O1361       O  0.96456563  0.95519030  0.03045586    -0.80600
O1362       O  0.52587877  0.95662606  0.04329996    -0.90900
C1363       C  0.87503945  0.95156274  0.06348161     0.83000
O1364       O  0.52450550  0.90969717  0.12305468    -0.69100
O1365       O  0.88548779  0.97211216  0.23811396    -0.88400
C1366       C  0.99475104  0.88980016  0.11692426     0.83900
C1367       C  0.99618463  0.97255137  0.02616647     1.05400
H1368       H  0.93101548  0.93520882  0.17554339     0.37200
O1369       O  0.92636336  0.95874097  0.15866236    -1.11000
O1370       O  0.93933383  0.53717013  0.14454765    -0.67700
Ni1371     Ni  0.96452963  0.99437257  0.17738244     1.26300
O1372       O  0.96300043  0.90451419  0.10656668    -0.67900
O1373       O  0.94131628  0.00425604  0.23819424    -0.80200
C1374       C  0.53913452  0.50933764  0.18006487     0.83200
O1375       O  0.00838098  0.52677226  0.19077390    -0.67400
Ni1376     Ni  0.87457679  0.97171266  0.16759790     1.27400
Ni1377     Ni  0.94385260  0.95478497  0.09444190     1.26100
H1378       H  0.98602445  0.50735745  0.10259973     0.37800
O1379       O  0.63010485  0.51346994  0.94817749    -0.82200
O1380       O  0.98393764  0.96067622  0.85352975    -0.66900
O1381       O  0.56591323  0.52874245  0.88570163    -1.13500
C1382       C  0.49600058  0.51485408  0.01813595     1.04700
O1383       O  0.95447785  0.51403738  0.86664851    -0.80100
O1384       O  0.96771963  0.57775936  0.92130146    -0.67700
Ni1385     Ni  0.61771215  0.51579503  0.87677553     1.34900
C1386       C  0.49746259  0.59765680  0.92752810     0.83400
O1387       O  0.55100952  0.98319246  0.80614458    -0.80600
O1388       O  0.60683738  0.51532592  0.80623944    -0.90900
C1389       C  0.95317625  0.97810025  0.86423693     0.83000
O1390       O  0.61181837  0.96259373  0.87766313    -0.69100
O1391       O  0.96631419  0.53077994  0.00098328    -0.88400
C1392       C  0.58837093  0.94327134  0.90190945     0.83900
C1393       C  0.57946050  0.99798880  0.78399388     1.05400
H1394       H  0.50623906  0.98009313  0.94170597     0.37200
O1395       O  0.50735117  0.50468021  0.92700465    -1.11000
O1396       O  0.52921542  0.58293470  0.93785230    -0.67700
Ni1397     Ni  0.54838214  0.53266759  0.94992621     1.26300
O1398       O  0.55298911  0.95030023  0.89981397    -0.67900
O1399       O  0.52762218  0.53221929  0.01388829    -0.80200
C1400       C  0.61721431  0.53595867  0.98092704     0.83200
O1401       O  0.59147012  0.55857700  0.96946851    -0.67400
Ni1402     Ni  0.95799110  0.52457966  0.93310015     1.27400
Ni1403     Ni  0.52777346  0.99308743  0.86694710     1.26100
H1404       H  0.56125145  0.55227675  0.86882889     0.37800
O1405       O  0.89157988  0.66023816  0.42772542    -0.82200
O1406       O  0.93604032  0.52320817  0.32497400    -0.66900
O1407       O  0.88219549  0.60737376  0.36737272    -1.13500
C1408       C  0.87554594  0.53530036  0.51037214     1.04700
O1409       O  0.89085065  0.98465093  0.34619474    -0.80100
O1410       O  0.84003873  0.00297363  0.41677878    -0.67700
Ni1411     Ni  0.90211867  0.65671695  0.36127358     1.34900
C1412       C  0.82075162  0.52640563  0.39247141     0.83400
O1413       O  0.90974833  0.58706804  0.28049921    -0.80600
O1414       O  0.90832283  0.64837627  0.29338921    -0.90900
C1415       C  0.91336703  0.99752593  0.31346792     0.83000
O1416       O  0.95528165  0.64695627  0.37311845    -0.69100
O1417       O  0.89284512  0.00790545  0.48811985    -0.88400
C1418       C  0.97517042  0.61720280  0.36695193     0.83900
C1419       C  0.89238963  0.61868988  0.27623831     1.05400
H1420       H  0.92975470  0.55345113  0.42556099     0.37200
O1421       O  0.90621981  0.54880533  0.40868208    -1.11000
O1422       O  0.82779365  0.56178131  0.39455473    -0.67700
Ni1423     Ni  0.87059188  0.58696260  0.42742982     1.26300
O1424       O  0.96044584  0.58545807  0.35658473    -0.67900
O1425       O  0.86069741  0.56372362  0.48822239    -0.80200
C1426       C  0.85564672  0.66156341  0.43016931     0.83200
O1427       O  0.83820367  0.63080833  0.44085776    -0.67400
Ni1428     Ni  0.89323589  0.99701991  0.41759415     1.27400
Ni1429     Ni  0.91016709  0.56632351  0.34447041     1.26100
H1430       H  0.85760992  0.60850033  0.35267088     0.37800
O1431       O  0.85150858  0.75260826  0.19829594    -0.82200
O1432       O  0.90421892  0.60646858  0.10358402    -0.66900
O1433       O  0.83617861  0.68844043  0.13581017    -1.13500
C1434       C  0.85008356  0.61850966  0.26821657     1.04700
O1435       O  0.85084891  0.57702354  0.11670560    -0.80100
O1436       O  0.78715478  0.59025920  0.17136761    -0.67700
Ni1437     Ni  0.84913677  0.74023738  0.12689592     1.34900
C1438       C  0.76726260  0.62000406  0.17758158     0.83400
O1439       O  0.88170228  0.67355315  0.05624547    -0.80600
O1440       O  0.84954965  0.72936782  0.05636297    -0.90900
C1441       C  0.88678335  0.57570924  0.11427443     0.83000
O1442       O  0.90233739  0.73431745  0.12772573    -0.69100
O1443       O  0.83414965  0.58882690  0.25105674    -0.88400
C1444       C  0.92164372  0.71087945  0.15200344     0.83900
C1445       C  0.86686948  0.70198763  0.03410458     1.05400
H1446       H  0.88482738  0.62874728  0.19178068     0.37200
O1447       O  0.86023792  0.62986976  0.17708616    -1.11000
O1448       O  0.78198738  0.65174914  0.18794529    -0.67700
Ni1449     Ni  0.83226355  0.67090103  0.20002401     1.26300
O1450       O  0.91461440  0.67549974  0.14990520    -0.67900
O1451       O  0.83272108  0.65013273  0.26398294    -0.80200
C1452       C  0.82901869  0.73971466  0.23104129     0.83200
O1453       O  0.80637510  0.71399474  0.21956800    -0.67400
Ni1454     Ni  0.84032847  0.58051661  0.18316463     1.27400
Ni1455     Ni  0.87182038  0.65030177  0.11703443     1.26100
H1456       H  0.81264040  0.68378506  0.11894326     0.37800
O1457       O  0.89091205  0.73470229  0.69829320    -0.82200
O1458       O  0.83824405  0.88085145  0.60359403    -0.66900
O1459       O  0.90626212  0.79885912  0.63579823    -1.13500
C1460       C  0.89240030  0.86877347  0.76822205     1.04700
O1461       O  0.89161902  0.91028833  0.61672239    -0.80100
O1462       O  0.95531687  0.89702994  0.67137488    -0.67700
Ni1463     Ni  0.89328392  0.74706814  0.62689075     1.34900
C1464       C  0.97520512  0.86727883  0.67756471     0.83400
O1465       O  0.86073458  0.81376223  0.55624706    -0.80600
O1466       O  0.89287807  0.75794167  0.55635899    -0.90900
C1467       C  0.85568441  0.91160760  0.61428533     0.83000
O1468       O  0.84008538  0.75301322  0.62772015    -0.69100
O1469       O  0.90832901  0.89846124  0.75106887    -0.88400
C1470       C  0.82079550  0.77644996  0.65202076     0.83900
C1471       C  0.87557140  0.78533100  0.53410201     1.05400
H1472       H  0.85764236  0.85856084  0.69178918     0.37200
O1473       O  0.88222943  0.85743418  0.67708810    -1.11000
O1474       O  0.96047687  0.83553135  0.68790946    -0.67700
Ni1475     Ni  0.91019850  0.81639239  0.70000938     1.26300
O1476       O  0.82783160  0.81182757  0.64992076    -0.67900
O1477       O  0.90976524  0.83715347  0.76397165    -0.80200
C1478       C  0.91341922  0.74758534  0.73102620     0.83200
O1479       O  0.93607707  0.77328745  0.71953395    -0.67400
Ni1480     Ni  0.90214539  0.90678279  0.68317903     1.27400
Ni1481     Ni  0.87063003  0.83700945  0.61703619     1.26100
H1482       H  0.92979829  0.80350607  0.61892227     0.37800
O1483       O  0.85088487  0.82707291  0.92774756    -0.82200
O1484       O  0.80641763  0.96407152  0.82494743    -0.66900
O1485       O  0.86027337  0.87992582  0.86737980    -1.13500
C1486       C  0.86690307  0.95201575  0.01036915     1.04700
O1487       O  0.85158135  0.50265475  0.84619173    -0.80100
O1488       O  0.90239801  0.98435045  0.91677374    -0.67700
Ni1489     Ni  0.84035809  0.83057714  0.86129178     1.34900
C1490       C  0.92169951  0.96091527  0.89248532     0.83400
O1491       O  0.83273028  0.90020803  0.78049945    -0.80600
O1492       O  0.83416668  0.83890050  0.79340287    -0.90900
C1493       C  0.82907781  0.48977087  0.81345678     0.83000
O1494       O  0.78719065  0.84032690  0.87311658    -0.69100
O1495       O  0.84959373  0.97940460  0.98811574    -0.88400
C1496       C  0.76729902  0.87007678  0.86694080     0.83900
C1497       C  0.85009493  0.86858792  0.77624783     1.05400
H1498       H  0.81269605  0.93384274  0.92554995     0.37200
O1499       O  0.83623167  0.93849396  0.90867465    -1.11000
O1500       O  0.91466307  0.92553761  0.89456814    -0.67700
Ni1501     Ni  0.87186561  0.90034664  0.92743445     1.26300
O1502       O  0.78202136  0.90182266  0.85657372    -0.67900
O1503       O  0.88175108  0.92359105  0.98822342    -0.80200
C1504       C  0.88681815  0.82575176  0.93018636     0.83200
O1505       O  0.90425870  0.85650836  0.94087385    -0.67400
Ni1506     Ni  0.84919803  0.49028484  0.91758962     1.27400
Ni1507     Ni  0.83229761  0.92096557  0.84446391     1.26100
H1508       H  0.88486126  0.87880349  0.85267990     0.37800
O1509       O  0.88026992  0.76324167  0.44826477    -0.82200
O1510       O  0.73402499  0.71052489  0.35381676    -0.66900
O1511       O  0.81605834  0.77857024  0.38583767    -1.13500
C1512       C  0.74631477  0.76479705  0.51839996     1.04700
O1513       O  0.70458999  0.76388440  0.36699772    -0.80100
O1514       O  0.71792852  0.82761609  0.42151257    -0.67700
Ni1515     Ni  0.86784166  0.76559600  0.37687597     1.34900
C1516       C  0.74768418  0.84751740  0.42761571     0.83400
O1517       O  0.80106045  0.73304720  0.30632310    -0.80600
O1518       O  0.85690349  0.76516902  0.30636612    -0.90900
C1519       C  0.70327105  0.72795203  0.36454417     0.83000
O1520       O  0.86191467  0.71239727  0.37773726    -0.69100
O1521       O  0.71661329  0.78072145  0.50128875    -0.88400
C1522       C  0.83847239  0.69308158  0.40200051     0.83900
C1523       C  0.82948807  0.74787015  0.28414735     1.05400
H1524       H  0.75643554  0.72996078  0.44196523     0.37200
O1525       O  0.75753498  0.75454296  0.42725371    -1.11000
O1526       O  0.77944238  0.83280799  0.43794698    -0.67700
Ni1527     Ni  0.79860445  0.78254315  0.45007252     1.26300
O1528       O  0.80309789  0.70013622  0.39996631    -0.67900
O1529       O  0.77793153  0.78215459  0.51407807    -0.80200
C1530       C  0.86742433  0.78577671  0.48098764     0.83200
O1531       O  0.84173393  0.80844155  0.46948474    -0.67400
Ni1532     Ni  0.70819153  0.77445817  0.43343206     1.27400
Ni1533     Ni  0.77788130  0.74293542  0.36715795     1.26100
H1534       H  0.81139977  0.80209923  0.36895211     0.37800
O1535       O  0.78803780  0.72332703  0.67790809    -0.82200
O1536       O  0.65103360  0.67877445  0.57509397    -0.66900
O1537       O  0.73515189  0.73267659  0.61756138    -1.13500
C1538       C  0.66305049  0.73936468  0.76058502     1.04700
O1539       O  0.61237800  0.72385953  0.59640501    -0.80100
O1540       O  0.63068200  0.77475338  0.66689989    -0.67700
Ni1541     Ni  0.78451379  0.71277643  0.61145983     1.34900
C1542       C  0.65413290  0.79408014  0.64266326     0.83400
O1543       O  0.71487684  0.70513515  0.53067932    -0.75800
O1544       O  0.77618536  0.70657013  0.54358051    -0.90900
C1545       C  0.62526390  0.70137028  0.56365262     0.83000
O1546       O  0.77478487  0.65959622  0.62326181    -0.69100
O1547       O  0.63567318  0.72202815  0.73833763    -0.88400
C1548       C  0.74504218  0.63969970  0.61702376     0.83900
C1549       C  0.74649922  0.72249747  0.52643096     1.05400
H1550       H  0.68125779  0.68507597  0.67573841     0.37200
O1551       O  0.67659250  0.70861048  0.65886879    -1.11000
O1552       O  0.68951522  0.78705446  0.64476370    -0.67700
Ni1553     Ni  0.71473494  0.74426771  0.67762337     1.26300
O1554       O  0.71328929  0.65442370  0.60670585    -0.67900
O1555       O  0.69150338  0.75415960  0.73843443    -0.80200
C1556       C  0.78933447  0.75926510  0.68030533     0.83200
O1557       O  0.75857298  0.77668380  0.69102902    -0.67400
Ni1558     Ni  0.62479156  0.72155019  0.66780357     1.27400
Ni1559     Ni  0.69411914  0.70468916  0.59464055     1.26100
H1560       H  0.73626299  0.75726385  0.60286123     0.37800
O1561       O  0.60157779  0.50259748  0.69815227    -0.82200
O1562       O  0.65436475  0.85633241  0.60370407    -0.66900
O1563       O  0.58630244  0.93835196  0.63573984    -1.13500
C1564       C  0.60010133  0.86857961  0.76827685     1.04700
O1565       O  0.60100913  0.82688005  0.61686978    -0.80100
O1566       O  0.53726520  0.84020615  0.67141070    -0.67700
Ni1567     Ni  0.59925645  0.49014166  0.62676457     1.34900
C1568       C  0.51736792  0.86995606  0.67757024     0.83400
O1569       O  0.63183291  0.92336418  0.55620202    -0.80600
O1570       O  0.59972029  0.97920696  0.55625094    -0.90900
C1571       C  0.63694435  0.82557524  0.61444771     0.83000
O1572       O  0.65245864  0.98424585  0.62766057    -0.69100
O1573       O  0.58417175  0.83888234  0.75115953    -0.88400
C1574       C  0.67179230  0.96079762  0.65188886     0.83900
C1575       C  0.61703688  0.95180563  0.53403008     1.05400
H1576       H  0.63493088  0.87873196  0.69184258     0.37200
O1577       O  0.61034462  0.87982851  0.67713678    -1.11000
O1578       O  0.53208548  0.90171342  0.68789008    -0.67700
Ni1579     Ni  0.58234864  0.92088807  0.69998213     1.26300
O1580       O  0.66474416  0.92541917  0.64984481    -0.67900
O1581       O  0.58274901  0.90019811  0.76397521    -0.80200
C1582       C  0.57906033  0.48974606  0.73089545     0.83200
O1583       O  0.55644046  0.96400063  0.71943981    -0.67400
Ni1584     Ni  0.59043027  0.83047631  0.68330318     1.27400
Ni1585     Ni  0.62194607  0.90018398  0.61704358     1.26100
H1586       H  0.56277079  0.93368303  0.61886389     0.37800
O1587       O  0.64149663  0.91047352  0.92770775    -0.82200
O1588       O  0.68606334  0.77334918  0.82514754    -0.66900
O1589       O  0.63215936  0.85752173  0.86744821    -1.13500
C1590       C  0.62543446  0.78553836  0.01055977     1.04700
O1591       O  0.64092107  0.73475348  0.84642442    -0.80100
O1592       O  0.59002661  0.75310904  0.91690186    -0.67700
Ni1593     Ni  0.65207269  0.90687425  0.86127355     1.34900
C1594       C  0.57070198  0.77655962  0.89266562     0.83400
O1595       O  0.65975132  0.83714891  0.78061054    -0.80600
O1596       O  0.65832615  0.89846589  0.79341753    -0.90900
C1597       C  0.66344423  0.74760401  0.81368554     0.83000
O1598       O  0.70524122  0.89714762  0.87314618    -0.69100
O1599       O  0.64274860  0.75813551  0.98833698    -0.88400
C1600       C  0.72513676  0.86739738  0.86697911     0.83900
C1601       C  0.64239767  0.86876649  0.77630523     1.05400
H1602       H  0.67972458  0.80366113  0.92572656     0.37200
O1603       O  0.65619319  0.79899548  0.90884864    -1.11000
O1604       O  0.57775051  0.81193802  0.89472492    -0.67700
Ni1605     Ni  0.62054993  0.83716667  0.92754133     1.26300
O1606       O  0.71041570  0.83563584  0.85668830    -0.67900
O1607       O  0.61065257  0.81398720  0.98838641    -0.80200
C1608       C  0.60556064  0.91177923  0.93013004     0.83200
O1609       O  0.58813825  0.88102353  0.94087709    -0.67400
Ni1610     Ni  0.64322746  0.74720587  0.91781715     1.27400
Ni1611     Ni  0.66015218  0.81646043  0.84460466     1.26100
H1612       H  0.60757451  0.85861986  0.85274025     0.37800
O1613       O  0.86218934  0.72408695  0.94826960    -0.82200
O1614       O  0.00842828  0.77680575  0.85377067    -0.66900
O1615       O  0.92640024  0.70876089  0.88583230    -1.13500
C1616       C  0.99618213  0.72255315  0.01836030     1.04700
O1617       O  0.53786169  0.72344397  0.86693512    -0.80100
O1618       O  0.52453434  0.65971846  0.92147042    -0.67700
Ni1619     Ni  0.87461435  0.72173088  0.87688001     1.34900
C1620       C  0.99478075  0.63981905  0.92759846     0.83400
O1621       O  0.94137971  0.75427982  0.80630380    -0.80600
O1622       O  0.88554261  0.72214921  0.80636749    -0.90900
C1623       C  0.53918216  0.75937660  0.86449434     0.83000
O1624       O  0.88054771  0.77492950  0.87773485    -0.69100
O1625       O  0.52587843  0.70662716  0.00123550    -0.88400
C1626       C  0.90399107  0.79424290  0.90199968     0.83900
C1627       C  0.91295269  0.73944711  0.78413747     1.05400
H1628       H  0.98604046  0.75737780  0.94192878     0.37200
O1629       O  0.98493430  0.73279258  0.92721787    -1.11000
O1630       O  0.96302645  0.65453103  0.93794367    -0.67700
Ni1631     Ni  0.94386979  0.70479920  0.95006217     1.26300
O1632       O  0.93936577  0.78719477  0.89994921    -0.67900
O1633       O  0.96456260  0.70519700  0.01405688    -0.80200
C1634       C  0.87503985  0.70155748  0.98099568     0.83200
O1635       O  0.90074480  0.67890463  0.96950295    -0.67400
Ni1636     Ni  0.53427841  0.71287712  0.93337278     1.27400
Ni1637     Ni  0.96457355  0.74439591  0.86713119     1.26100
H1638       H  0.93105699  0.68522995  0.86895119     0.37800
O1639       O  0.95441808  0.76400451  0.17785331    -0.82200
O1640       O  0.59145049  0.80856819  0.07510958    -0.66900
O1641       O  0.50732047  0.75465994  0.11752871    -1.13500
C1642       C  0.57938836  0.74795036  0.26058010     1.04700
O1643       O  0.63008399  0.76346514  0.09641206    -0.80100
O1644       O  0.61177873  0.71257404  0.16691117    -0.67700
Ni1645     Ni  0.95796092  0.77456099  0.11140837     1.34900
C1646       C  0.58833151  0.69324214  0.14267735     0.83400
O1647       O  0.52762184  0.78221184  0.03065792    -0.80600
O1648       O  0.96631028  0.78077852  0.04353485    -0.90900
C1649       C  0.61720532  0.78595912  0.06365978     0.83000
O1650       O  0.96768687  0.82774004  0.12322601    -0.69100
O1651       O  0.60676958  0.76529182  0.23834415    -0.88400
C1652       C  0.49743090  0.84763796  0.11700522     0.83900
C1653       C  0.49599982  0.76485181  0.02639352     1.05400
H1654       H  0.56119942  0.80225441  0.17573747     0.37200
O1655       O  0.56586677  0.77872146  0.15886551    -1.11000
O1656       O  0.55294909  0.70027449  0.14475407    -0.67700
Ni1657     Ni  0.52771923  0.74306356  0.17759924     1.26300
O1658       O  0.52918643  0.83291601  0.10669601    -0.67900
O1659       O  0.55093284  0.73316954  0.23842037    -0.80200
C1660       C  0.95311769  0.72806708  0.18025936     0.83200
O1661       O  0.48387755  0.71064658  0.19098413    -0.67400
Ni1662     Ni  0.61766420  0.76577668  0.16781189     1.27400
Ni1663     Ni  0.54835894  0.78265144  0.09463022     1.26100
H1664       H  0.50621534  0.73007186  0.10282376     0.37800
loop_ 
_geom_bond_atom_site_label_1 
_geom_bond_atom_site_label_2 
_geom_bond_distance 
_geom_bond_site_symmetry_2 
_ccdc_geom_bond_type 
O1           Ni7   1.886       .  S
O1           C22   1.269       .  A
O2          Ni25   1.853       .  S
O2           C11   1.249       .  A
O3           Ni7   1.883       .  S
O3          Ni25   1.862       .  S
O3          Ni19   1.861       .  S
O3           H26   0.958       .  S
C4           O21   1.286       .  A
C4           O13   1.298       .  A
C4          C297   1.502       .  S
O5          Ni24   2.032       .  S
O5           C11   1.289       .  A
O6          Ni24   1.886       .  S
O6            C8   1.264       .  A
Ni7          O10   1.920       .  S
Ni7          O12   1.933       .  S
C8           O18   1.272       .  A
C8          C271   1.487       .  S
O9          Ni25   1.920       .  S
O9           C15   1.276       .  A
O10          C15   1.279       .  A
C11         C394   1.503       .  S
O12          C14   1.272       .  A
O13         Ni24   1.995       .  S
C14          O20   1.266       .  A
C14        C1002   1.488   1_455  S
C15          C30   1.507       .  S
H16          O17   0.966       .  S
O17         Ni25   1.892       .  S
O17         Ni19   1.912       .  S
O17         Ni24   1.897       .  S
O18         Ni19   1.973       .  S
Ni19         O23   1.957       .  S
Ni19         O21   1.908       .  S
O20         Ni25   1.925       .  S
C22          O23   1.281       .  A
C22          C66   1.487       .  S
O27         Ni33   2.032       .  S
O27          C48   1.289       .  A
O28         Ni51   1.957       .  S
O28          C37   1.280       .  A
O29         Ni51   1.912       .  S
O29         Ni45   1.892       .  S
O29        Ni449   1.897   1_545  S
O29          H52   0.966       .  S
C30          O47   1.276       .  A
C30          O39   1.279       .  A
O31         Ni50   1.886       .  S
O31          C37   1.269       .  A
O32         Ni50   1.932       .  S
O32          C34   1.272       .  A
Ni33         O36   1.995       .  S
Ni33         O38   1.886       .  S
Ni33        O445   1.897       .  S
C34          O44   1.266       .  A
C34         C190   1.488       .  S
O35         Ni51   1.908       .  S
O35          C41   1.286       .  A
O36         C457   1.298       .  A
C37         C398   1.487       .  S
O38         C456   1.264       .  A
O39         Ni50   1.920       .  S
C40          O46   1.272       .  A
C40         O454   1.264       .  A
C40         C126   1.487       .  S
C41         O452   1.298       .  A
C41         C152   1.502   1_554  S
H42          O43   0.958       .  S
O43         Ni51   1.861       .  S
O43         Ni45   1.862       .  S
O43         Ni50   1.883       .  S
O44         Ni45   1.925       .  S
Ni45         O49   1.853       .  S
Ni45         O47   1.920       .  S
O46         Ni51   1.973       .  S
C48         O465   1.249       .  A
C48          C67   1.503       .  S
O49         C464   1.249   1_545  A
O53         Ni59   2.031       .  S
O53          C74   1.289       .  A
O54        Ni493   1.956   1_545  S
O54          C63   1.280       .  A
O55         Ni59   1.897       .  S
O55         Ni77   1.912       .  S
O55         Ni71   1.892       .  S
O55          H78   0.966       .  S
C56          O73   1.276       .  A
C56          O65   1.279       .  A
C56         C509   1.507       .  S
O57         Ni76   1.886       .  S
O57         C479   1.269       .  A
O58         Ni76   1.933       .  S
O58          C60   1.272       .  A
Ni59         O62   1.995       .  S
Ni59        O480   1.886       .  S
C60          O70   1.266       .  A
C60         C268   1.488       .  S
O61         Ni77   1.908       .  S
O61          C67   1.286       .  A
O62          C67   1.298       .  A
C63         O473   1.269   1_545  A
C63         C164   1.487       .  S
O64        Ni475   1.886   1_545  S
O64          C66   1.264       .  A
O65         Ni76   1.920       .  S
C66          O72   1.272       .  A
H68         O485   0.958   1_545  S
O69         Ni77   1.861       .  S
O69         Ni71   1.862       .  S
O69         Ni76   1.883       .  S
O69         H484   0.958       .  S
O70         Ni71   1.925       .  S
Ni71         O75   1.852       .  S
Ni71         O73   1.920       .  S
O72        Ni493   1.973   1_545  S
C74          O75   1.249       .  A
C74         C327   1.502       .  S
Ni77        O470   1.956       .  S
Ni77        O488   1.973       .  S
O79         Ni85   1.886       .  S
O79         C516   1.269   1_545  A
O80        Ni103   1.852       .  S
O80          C89   1.248       .  A
O81         Ni85   1.882       .  S
O81        Ni103   1.862       .  S
O81         Ni97   1.861   1_545  S
O81         H520   0.958   1_545  S
C82          O99   1.286       .  A
C82         O507   1.298       .  A
C82         C661   1.502       .  S
O83        Ni102   2.031       .  S
O83          C89   1.289       .  A
O84        Ni518   1.886       .  S
O84          C86   1.264       .  A
Ni85         O88   1.920       .  S
Ni85         O90   1.932       .  S
C86          O96   1.272       .  A
C86         C219   1.487       .  S
O87        Ni103   1.920       .  S
O87          C93   1.276       .  A
O88          C93   1.279       .  A
C89         C160   1.502       .  S
O90          C92   1.272       .  A
O91        Ni102   1.995       .  S
O91         C498   1.298   1_545  A
C92          O98   1.266       .  A
C92         C300   1.488       .  S
C93         C472   1.507   1_545  S
H94          O95   0.966       .  S
O95        Ni103   1.891       .  S
O95         Ni97   1.911   1_545  S
O95        Ni102   1.897       .  S
O96        Ni513   1.973       .  S
Ni97        O512   1.973       .  S
Ni97        O517   1.956       .  S
Ni97        O515   1.908       .  S
O98        Ni103   1.925       .  S
O99        Ni513   1.908       .  S
C100        O101   1.280       .  A
C100        O495   1.269       .  A
C100        C326   1.487       .  S
O101       Ni513   1.956       .  S
Ni102       O500   1.886   1_545  S
H104        O497   0.958       .  S
O105       Ni111   1.886       .  S
O105        C542   1.269       .  A
O106       Ni129   1.852       .  S
O106        C115   1.249       .  A
O107       Ni129   1.862       .  S
O107       Ni123   1.861       .  S
O107       Ni943   1.882       .  S
O107        H546   0.958       .  S
C108        O125   1.286       .  A
C108        O117   1.298       .  A
C108        C167   1.502       .  S
O109       Ni128   2.031       .  S
O109        C115   1.289       .  A
O110       Ni544   1.886   1_545  S
O110        C112   1.264       .  A
Ni111       O114   1.920       .  S
Ni111       O116   1.932       .  S
Ni111       O939   1.882   1_455  S
C112        O122   1.272       .  A
C112        C193   1.487       .  S
O113       Ni129   1.920       .  S
O113        C119   1.276       .  A
O114        C951   1.279   1_455  A
C115        C238   1.502       .  S
O116        C950   1.272   1_455  A
O117       Ni128   1.995       .  S
C118        O124   1.266       .  A
C118        O948   1.272       .  A
C118       C1236   1.488       .  S
C119        O946   1.279       .  A
C119       C1382   1.507       .  S
H120        O121   0.966       .  S
O121       Ni129   1.891       .  S
O121       Ni123   1.911       .  S
O121       Ni128   1.897       .  S
O122       Ni539   1.973   1_545  S
Ni123       O125   1.908       .  S
Ni123       O538   1.973       .  S
Ni123       O543   1.956       .  S
O124       Ni129   1.925       .  S
C126        O521   1.269   1_545  A
C126        O959   1.280       .  A
O127       Ni539   1.956   1_545  S
O127        C958   1.280       .  A
Ni128       O526   1.886       .  S
H130        O523   0.958   1_545  S
O131       Ni137   2.031       .  S
O131        C152   1.289       .  A
O132       Ni987   1.956       .  S
O132        C141   1.280       .  A
O133       Ni137   1.897       .  S
O133       Ni149   1.892       .  S
O133       Ni571   1.912   1_545  S
O133        H156   0.966       .  S
C134        O151   1.276   1_655  A
C134        O975   1.279       .  A
C134       C1367   1.507   1_545  S
O135       Ni154   1.886       .  S
O135        C557   1.269   1_545  A
O136       Ni154   1.933       .  S
O136        C970   1.272       .  A
Ni137       O140   1.995       .  S
Ni137       O558   1.886   1_545  S
C138        O148   1.266   1_655  A
C138        O968   1.272       .  A
C138       C1204   1.488       .  S
O139       Ni155   1.908       .  S
O139        C145   1.286       .  A
O140        C561   1.298   1_545  A
C141        O551   1.269       .  A
C141        C242   1.487       .  S
O142       Ni553   1.886       .  S
O142        C144   1.264       .  A
O143       Ni154   1.920   1_554  S
O143        C966   1.279       .  A
C144        O150   1.272       .  A
C144        C360   1.487       .  S
C145        O556   1.298       .  A
C145        C750   1.502       .  S
H146        O563   0.958       .  S
O147       Ni149   1.862       .  S
O147       Ni571   1.861   1_545  S
O147       Ni986   1.883   1_455  S
O147        H562   0.958   1_545  S
O148       Ni149   1.925       .  S
Ni149       O153   1.852       .  S
Ni149       O151   1.921   1_556  S
O150       Ni155   1.973       .  S
C152        O153   1.249       .  A
Ni154       O979   1.883       .  S
Ni155       O964   1.956   1_455  S
Ni155       O549   1.912       .  S
Ni155       O563   1.861       .  S
O157       Ni163   1.886       .  S
O157        C178   1.269       .  A
O158       Ni181   1.852       .  S
O158        C583   1.248   1_545  A
O159       Ni163   1.882       .  S
O159       Ni181   1.862       .  S
O159       Ni175   1.861       .  S
O159        H182   0.958       .  S
C160        O177   1.286       .  A
C160        O585   1.298       .  A
O161       Ni180   2.031       .  S
O161        C167   1.289       .  A
O162       Ni180   1.886       .  S
O162        C580   1.264       .  A
Ni163       O166   1.920       .  S
Ni163       O168   1.932       .  S
C164        O174   1.272       .  A
C164        O578   1.264       .  A
O165       Ni181   1.921       .  S
O165        C171   1.276       .  A
O166        C171   1.279       .  A
C167        O574   1.248       .  A
O168        C170   1.272       .  A
O169       Ni180   1.995       .  S
O169        C576   1.298       .  A
C170        O176   1.266       .  A
C170        C846   1.488       .  S
C171        C186   1.507       .  S
H172        O173   0.966       .  S
O173       Ni181   1.892       .  S
O173       Ni175   1.911       .  S
O173       Ni596   1.897   1_545  S
O174       Ni175   1.973       .  S
Ni175       O179   1.956       .  S
Ni175       O177   1.908       .  S
O176       Ni181   1.925       .  S
C178        O179   1.280       .  A
C178        C274   1.487       .  S
Ni180       O589   1.897       .  S
O183       Ni189   2.031       .  S
O183        C204   1.289       .  A
O184       Ni207   1.956       .  S
O184        C193   1.280       .  A
O185       Ni189   1.897       .  S
O185       Ni207   1.911       .  S
O185       Ni201   1.892       .  S
O185        H208   0.966       .  S
C186        O203   1.276       .  A
C186        O195   1.279       .  A
O187       Ni206   1.886       .  S
O187        C193   1.269       .  A
O188       Ni206   1.932       .  S
O188        C190   1.272       .  A
Ni189       O192   1.995       .  S
Ni189       O194   1.886       .  S
C190        O200   1.266       .  A
O191       Ni207   1.908       .  S
O191        C197   1.286       .  A
O192        C197   1.298       .  A
O194        C196   1.264       .  A
O195       Ni206   1.920       .  S
C196        O202   1.272       .  A
C196        C412   1.487       .  S
C197        C386   1.502   1_554  S
H198        O199   0.958       .  S
O199       Ni207   1.861       .  S
O199       Ni201   1.862       .  S
O199       Ni206   1.882       .  S
O200       Ni201   1.925       .  S
Ni201       O205   1.852       .  S
Ni201       O203   1.921       .  S
O202       Ni207   1.973       .  S
C204        O205   1.249       .  A
C204        C275   1.502       .  S
O209       Ni215   2.031       .  S
O209        C230   1.289       .  A
O210       Ni233   1.956       .  S
O210        C219   1.280       .  A
O211       Ni215   1.897       .  S
O211       Ni233   1.911       .  S
O211       Ni227   1.892       .  S
O211        H234   0.966       .  S
C212        O229   1.276       .  A
C212        O221   1.279       .  A
C212        C249   1.507       .  S
O213       Ni232   1.886       .  S
O213        C219   1.269       .  A
O214       Ni232   1.932       .  S
O214        C216   1.272       .  A
Ni215       O218   1.995       .  S
Ni215       O220   1.886       .  S
C216        O226   1.266       .  A
C216       C1152   1.488       .  S
O217       Ni233   1.908       .  S
O217        C223   1.286       .  A
O218        C223   1.298       .  A
O220        C222   1.264       .  A
O221       Ni232   1.920       .  S
C222        O228   1.272       .  A
C222        C308   1.487       .  S
C223        C282   1.502       .  S
H224        O225   0.958       .  S
O225       Ni233   1.861       .  S
O225       Ni227   1.862       .  S
O225       Ni232   1.882       .  S
O226       Ni227   1.925       .  S
Ni227       O231   1.852       .  S
Ni227       O229   1.921       .  S
O228       Ni233   1.973       .  S
C230        O231   1.248       .  A
C230        C379   1.502       .  S
O235       Ni241   1.886       .  S
O235        C256   1.269       .  A
O236       Ni259   1.852       .  S
O236        C661   1.249       .  A
O237       Ni241   1.882       .  S
O237       Ni259   1.862       .  S
O237       Ni253   1.861       .  S
O237        H260   0.958       .  S
C238        O255   1.286   1_554  A
C238        O247   1.298   1_554  A
O239       Ni258   2.031   1_545  S
O239        C245   1.289   1_545  A
O240       Ni674   1.886       .  S
O240        C242   1.264       .  A
Ni241       O244   1.920       .  S
Ni241       O246   1.932       .  S
C242        O252   1.272       .  A
O243       Ni259   1.921       .  S
O243        C249   1.276       .  A
O244        C249   1.279       .  A
C245        O652   1.249       .  A
C245        C498   1.502       .  S
O246        C248   1.272       .  A
O247       Ni674   1.995       .  S
C248        O254   1.266       .  A
C248        C352   1.488       .  S
H250        O251   0.966       .  S
O251       Ni259   1.892       .  S
O251       Ni253   1.911       .  S
O251       Ni674   1.897       .  S
O252       Ni253   1.973       .  S
Ni253       O257   1.956       .  S
Ni253       O255   1.908       .  S
O254       Ni259   1.925       .  S
C256        O257   1.280       .  A
C256        C378   1.487       .  S
Ni258       O656   1.886       .  S
Ni258       O663   1.995       .  S
Ni258       O667   1.897       .  S
O261       Ni267   2.031       .  S
O261        C282   1.289       .  A
O262       Ni285   1.956       .  S
O262        C271   1.280       .  A
O263       Ni267   1.897       .  S
O263       Ni285   1.911       .  S
O263       Ni279   1.892       .  S
O263        H286   0.966       .  S
C264        O281   1.276       .  A
C264        O273   1.279       .  A
C264        C301   1.507       .  S
O265       Ni284   1.886       .  S
O265        C271   1.269       .  A
O266       Ni284   1.932       .  S
O266        C268   1.272       .  A
Ni267       O270   1.995       .  S
Ni267       O272   1.886       .  S
C268        O278   1.266       .  A
O269       Ni285   1.908       .  S
O269        C275   1.286       .  A
O270        C275   1.298       .  A
O272        C274   1.264       .  A
O273       Ni284   1.920       .  S
C274        O280   1.272       .  A
H276        O277   0.958       .  S
O277       Ni285   1.861       .  S
O277       Ni279   1.862       .  S
O277       Ni284   1.882       .  S
O278       Ni279   1.925       .  S
Ni279       O283   1.852       .  S
Ni279       O281   1.920       .  S
O280       Ni285   1.973       .  S
C282        O283   1.248       .  A
O287       Ni293   1.886       .  S
O287        C308   1.269       .  A
O288       Ni311   1.853       .  S
O288        C297   1.249       .  A
O289       Ni293   1.883       .  S
O289       Ni311   1.862       .  S
O289       Ni305   1.861       .  S
O289        H312   0.958       .  S
C290        O307   1.286       .  A
C290        O299   1.298       .  A
C290        C349   1.503       .  S
O291       Ni310   2.031       .  S
O291        C297   1.289       .  A
O292       Ni310   1.886       .  S
O292        C294   1.264       .  A
Ni293       O296   1.920       .  S
Ni293       O298   1.933       .  S
C294        O304   1.272       .  A
C294        C323   1.487       .  S
O295       Ni311   1.920       .  S
O295        C301   1.276       .  A
O296        C301   1.279       .  A
O298        C300   1.272       .  A
O299       Ni310   1.995       .  S
C300        O306   1.266       .  A
H302        O303   0.966       .  S
O303       Ni311   1.892       .  S
O303       Ni305   1.912       .  S
O303       Ni310   1.897       .  S
O304       Ni305   1.973       .  S
Ni305       O309   1.956       .  S
Ni305       O307   1.908       .  S
O306       Ni311   1.925       .  S
C308        O309   1.281       .  A
O313       Ni319   2.032   1_545  S
O313        C334   1.289   1_545  A
O314       Ni337   1.957       .  S
O314        C323   1.280       .  A
O315       Ni337   1.912       .  S
O315       Ni331   1.892       .  S
O315       Ni735   1.897       .  S
O315        H338   0.966       .  S
C316        O333   1.276       .  A
C316        O325   1.279       .  A
C316        C353   1.507       .  S
O317       Ni336   1.886       .  S
O317        C323   1.269       .  A
O318       Ni336   1.933       .  S
O318        C320   1.272       .  A
Ni319       O738   1.995       .  S
Ni319       O740   1.886       .  S
Ni319       O731   1.897       .  S
C320        O330   1.266       .  A
C320       C1048   1.488   1_455  S
O321       Ni337   1.908       .  S
O321        C327   1.286       .  A
O322       Ni735   1.995       .  S
O322        C327   1.298       .  A
O324       Ni735   1.886       .  S
O324        C326   1.264       .  A
O325       Ni336   1.920       .  S
C326        O332   1.272       .  A
H328        O329   0.958       .  S
O329       Ni337   1.861       .  S
O329       Ni331   1.862       .  S
O329       Ni336   1.883       .  S
O330       Ni331   1.925       .  S
Ni331       O335   1.853       .  S
Ni331       O333   1.920       .  S
O332       Ni337   1.973       .  S
C334        O751   1.249       .  A
C334        C561   1.502       .  S
O335        C750   1.249       .  A
O339       Ni345   1.886       .  S
O339        C360   1.269       .  A
O340       Ni363   1.853       .  S
O340        C349   1.249       .  A
O341       Ni345   1.883       .  S
O341       Ni363   1.862       .  S
O341       Ni357   1.861       .  S
O341        H364   0.958       .  S
C342        O359   1.286   1_554  A
C342        O351   1.298   1_554  A
C342        C401   1.502       .  S
O343       Ni362   2.032       .  S
O343        C349   1.289       .  A
O344       Ni362   1.886       .  S
O344        C346   1.264       .  A
Ni345       O348   1.920       .  S
Ni345       O350   1.933       .  S
C346        O356   1.272       .  A
C346        C375   1.487       .  S
O347       Ni363   1.920       .  S
O347        C353   1.276       .  A
O348        C353   1.279       .  A
O350        C352   1.272       .  A
O351       Ni362   1.995       .  S
C352        O358   1.266       .  A
H354        O355   0.966       .  S
O355       Ni363   1.892       .  S
O355       Ni357   1.912       .  S
O355       Ni362   1.897       .  S
O356       Ni357   1.973       .  S
Ni357       O361   1.957       .  S
Ni357       O359   1.908       .  S
O358       Ni363   1.925       .  S
C360        O361   1.280       .  A
O365       Ni371   2.031       .  S
O365        C386   1.289       .  A
O366       Ni389   1.957       .  S
O366       C1207   1.280       .  A
O367       Ni371   1.897       .  S
O367       Ni389   1.912       .  S
O367       Ni383   1.892       .  S
O367        H390   0.966       .  S
C368        O385   1.276       .  A
C368       O1209   1.279       .  A
C368       C1237   1.507       .  S
O369       Ni388   1.886       .  S
O369        C375   1.269       .  A
O370       Ni388   1.932       .  S
O370       C1204   1.272   1_455  A
Ni371       O374   1.995       .  S
Ni371       O376   1.886       .  S
C372        O382   1.266       .  A
C372       O1202   1.272       .  A
C372        C970   1.488       .  S
O373       Ni389   1.908       .  S
O373        C379   1.286       .  A
O374        C379   1.298       .  A
C375       O1198   1.280       .  A
O376        C378   1.264       .  A
O377       Ni388   1.920   1_554  S
O377       C1200   1.279   1_455  A
C378        O384   1.272       .  A
H380        O381   0.958       .  S
O381       Ni389   1.861       .  S
O381       Ni383   1.862       .  S
O381      Ni1220   1.882       .  S
O382       Ni383   1.925       .  S
Ni383       O387   1.852       .  S
Ni383       O385   1.920   1_556  S
O384       Ni389   1.973       .  S
C386        O387   1.249       .  A
Ni388      O1213   1.882   1_455  S
O391       Ni397   1.886       .  S
O391        C412   1.269       .  A
O392       Ni415   1.852       .  S
O392        C401   1.249       .  A
O393       Ni415   1.862       .  S
O393       Ni409   1.861       .  S
O393      Ni1229   1.883   1_455  S
O393        H416   0.958       .  S
C394        O411   1.286       .  A
C394        O403   1.298       .  A
O395       Ni414   2.032       .  S
O395        C401   1.289       .  A
O396       Ni414   1.886       .  S
O396        C398   1.264       .  A
Ni397       O400   1.920       .  S
Ni397       O402   1.933       .  S
Ni397      O1225   1.883       .  S
C398        O408   1.272       .  A
O399       Ni415   1.920       .  S
O399        C405   1.276   1_455  A
O400       C1237   1.279       .  A
O402       C1236   1.272       .  A
O403       Ni414   1.995       .  S
C404        O410   1.266   1_655  A
C404       O1234   1.272       .  A
C404        C950   1.488       .  S
C405       O1232   1.279       .  A
C405       C1200   1.507       .  S
H406        O407   0.966       .  S
O407       Ni415   1.892       .  S
O407       Ni409   1.912       .  S
O407       Ni414   1.897       .  S
O408       Ni409   1.973       .  S
Ni409       O413   1.956   1_455  S
Ni409       O411   1.908       .  S
O410       Ni415   1.925       .  S
C412       O1245   1.280       .  A
O413       C1244   1.280       .  A
O417       Ni423   1.886       .  S
O417        C438   1.269       .  A
O418       Ni441   1.853       .  S
O418        C427   1.249       .  A
O419       Ni423   1.883       .  S
O419       Ni441   1.862       .  S
O419       Ni435   1.861       .  S
O419        H442   0.958       .  S
C420        O437   1.286       .  A
C420        O429   1.298       .  A
C420        C713   1.502       .  S
O421       Ni440   2.032       .  S
O421        C427   1.289       .  A
O422       Ni440   1.886       .  S
O422        C424   1.264       .  A
Ni423       O426   1.920       .  S
Ni423       O428   1.933       .  S
C424        O434   1.272       .  A
C424        C687   1.487       .  S
O425       Ni441   1.920       .  S
O425        C431   1.276       .  A
O426        C431   1.279       .  A
C427        C810   1.503       .  S
O428        C430   1.272       .  A
O429       Ni440   1.995       .  S
C430        O436   1.266       .  A
C430       C1418   1.488   1_455  S
C431        C446   1.507       .  S
H432        O433   0.966       .  S
O433       Ni441   1.892       .  S
O433       Ni435   1.912       .  S
O433       Ni440   1.897       .  S
O434       Ni435   1.973       .  S
Ni435       O439   1.957       .  S
Ni435       O437   1.908       .  S
O436       Ni441   1.925       .  S
C438        O439   1.281       .  A
C438        C482   1.487       .  S
O443       Ni449   2.032       .  S
O443        C464   1.289       .  A
O444       Ni467   1.957       .  S
O444        C453   1.280       .  A
O445       Ni467   1.912       .  S
O445       Ni461   1.892       .  S
O445        H468   0.966       .  S
C446        O463   1.276       .  A
C446        O455   1.279       .  A
O447       Ni466   1.886       .  S
O447        C453   1.269       .  A
O448       Ni466   1.932       .  S
O448        C450   1.272       .  A
Ni449       O452   1.995   1_565  S
Ni449       O454   1.886   1_565  S
C450        O460   1.266       .  A
C450        C606   1.488       .  S
O451       Ni467   1.908       .  S
O451        C457   1.286       .  A
C453        C814   1.487       .  S
O455       Ni466   1.920       .  S
C456        O462   1.272       .  A
C456        C542   1.487       .  S
C457        C568   1.502   1_554  S
H458        O459   0.958       .  S
O459       Ni467   1.861       .  S
O459       Ni461   1.862       .  S
O459       Ni466   1.883       .  S
O460       Ni461   1.925       .  S
Ni461       O465   1.853       .  S
Ni461       O463   1.920       .  S
O462       Ni467   1.973       .  S
C464        C483   1.503       .  S
O469       Ni475   2.031       .  S
O469        C490   1.289       .  A
O470        C479   1.280       .  A
O471       Ni475   1.897       .  S
O471       Ni493   1.912       .  S
O471       Ni487   1.892       .  S
O471        H494   0.966       .  S
C472        O489   1.276       .  A
C472        O481   1.279       .  A
O473       Ni492   1.886       .  S
O474       Ni492   1.933       .  S
O474        C476   1.272       .  A
Ni475       O478   1.995       .  S
C476        O486   1.266       .  A
C476        C684   1.488       .  S
O477       Ni493   1.908   1_545  S
O477        C483   1.286   1_545  A
O478        C483   1.298       .  A
C479        C580   1.487       .  S
O480        C482   1.264       .  A
O481       Ni492   1.920       .  S
C482        O488   1.272       .  A
O485       Ni493   1.861       .  S
O485       Ni487   1.862       .  S
O485       Ni492   1.883       .  S
O486       Ni487   1.925       .  S
Ni487       O491   1.852       .  S
Ni487       O489   1.920       .  S
C490        O491   1.249       .  A
C490        C743   1.502       .  S
O495       Ni501   1.886       .  S
O496       Ni519   1.852       .  S
O496        C505   1.249       .  A
O497       Ni501   1.882       .  S
O497       Ni519   1.862       .  S
O497       Ni513   1.861       .  S
C498        O515   1.286       .  A
O499       Ni518   2.031       .  S
O499        C505   1.289       .  A
O500        C502   1.264       .  A
Ni501       O504   1.920       .  S
Ni501       O506   1.932       .  S
C502        O512   1.272       .  A
C502        C635   1.487       .  S
O503       Ni519   1.920       .  S
O503        C509   1.276       .  A
O504        C509   1.279       .  A
C505        C576   1.502       .  S
O506        C508   1.272       .  A
O507       Ni518   1.995       .  S
C508        O514   1.266       .  A
C508        C716   1.488       .  S
H510        O511   0.966       .  S
O511       Ni519   1.891       .  S
O511       Ni513   1.911       .  S
O511       Ni518   1.897       .  S
O514       Ni519   1.925       .  S
C516        O517   1.280       .  A
C516        C742   1.487       .  S
O521       Ni527   1.886       .  S
O522       Ni545   1.852       .  S
O522        C531   1.249       .  A
O523      Ni1359   1.882       .  S
O523       Ni545   1.862       .  S
O523       Ni539   1.861       .  S
C524        O541   1.286   1_565  A
C524        O533   1.298       .  A
C524        C583   1.502       .  S
O525       Ni544   2.031       .  S
O525        C531   1.289       .  A
O526        C528   1.264       .  A
Ni527       O530   1.920       .  S
Ni527       O532   1.932       .  S
Ni527      O1355   1.882   1_455  S
C528        O538   1.272       .  A
C528        C609   1.487       .  S
O529       Ni545   1.920       .  S
O529        C535   1.276       .  A
O530       C1367   1.279   1_455  A
C531        C654   1.502       .  S
O532       C1366   1.272   1_455  A
O533       Ni544   1.995       .  S
C534       O1364   1.272       .  A
C534        O540   1.266       .  A
C534       C1652   1.488       .  S
C535       O1362   1.279       .  A
C535        C966   1.507   1_565  S
H536        O537   0.966       .  S
O537       Ni545   1.891       .  S
O537       Ni539   1.911       .  S
O537       Ni544   1.897       .  S
Ni539       O541   1.908   1_565  S
O540       Ni545   1.925       .  S
C542       O1375   1.280       .  A
O543       C1374   1.280       .  A
O547       Ni553   2.031       .  S
O547        C568   1.289       .  A
O548      Ni1403   1.956       .  S
O548        C557   1.280       .  A
O549       Ni553   1.897       .  S
O549       Ni565   1.892       .  S
O549        H572   0.966       .  S
C550        O567   1.276   1_655  A
C550       O1391   1.279       .  A
C550        C951   1.507       .  S
O551       Ni570   1.886       .  S
O552       Ni570   1.933       .  S
O552       C1386   1.272       .  A
Ni553       O556   1.995       .  S
C554       O1384   1.272       .  A
C554        O564   1.266   1_655  A
C554       C1620   1.488       .  S
O555       Ni571   1.908       .  S
O555        C561   1.286       .  A
C557        C658   1.487       .  S
O558        C560   1.264       .  A
O559       Ni570   1.920   1_554  S
O559       C1382   1.279       .  A
C560        O566   1.272       .  A
C560        C776   1.487       .  S
O563       Ni565   1.862       .  S
O563      Ni1402   1.883   1_455  S
O564       Ni565   1.925       .  S
Ni565       O569   1.852       .  S
Ni565       O567   1.920   1_556  S
O566       Ni571   1.973       .  S
C568        O569   1.249       .  A
Ni570      O1395   1.883       .  S
Ni571      O1380   1.956   1_455  S
O573       Ni579   1.886       .  S
O573        C594   1.269       .  A
O574       Ni597   1.852       .  S
O575       Ni579   1.882       .  S
O575       Ni597   1.862       .  S
O575       Ni591   1.861       .  S
O575        H598   0.958       .  S
C576        O593   1.286       .  A
O577       Ni596   2.031       .  S
O577        C583   1.289       .  A
O578       Ni596   1.886   1_545  S
Ni579       O582   1.920       .  S
Ni579       O584   1.932       .  S
C580        O590   1.272       .  A
O581       Ni597   1.921       .  S
O581        C587   1.276       .  A
O582        C587   1.279       .  A
O584        C586   1.272       .  A
O585       Ni596   1.995   1_545  S
C586        O592   1.266       .  A
C586       C1262   1.488       .  S
C587        C602   1.507       .  S
H588        O589   0.966       .  S
O589       Ni597   1.892       .  S
O589       Ni591   1.911       .  S
O590       Ni591   1.973       .  S
Ni591       O595   1.956       .  S
Ni591       O593   1.908       .  S
O592       Ni597   1.925       .  S
C594        O595   1.280       .  A
C594        C690   1.487       .  S
O599       Ni605   2.031       .  S
O599        C620   1.289       .  A
O600       Ni623   1.956       .  S
O600        C609   1.280       .  A
O601       Ni605   1.897       .  S
O601       Ni623   1.911       .  S
O601       Ni617   1.892       .  S
O601        H624   0.966       .  S
C602        O619   1.276       .  A
C602        O611   1.279       .  A
O603       Ni622   1.886       .  S
O603        C609   1.269       .  A
O604       Ni622   1.932       .  S
O604        C606   1.272       .  A
Ni605       O608   1.995       .  S
Ni605       O610   1.886       .  S
C606        O616   1.266       .  A
O607       Ni623   1.908       .  S
O607        C613   1.286       .  A
O608        C613   1.298       .  A
O610        C612   1.264       .  A
O611       Ni622   1.920       .  S
C612        O618   1.272       .  A
C612        C828   1.487       .  S
C613        C802   1.502   1_554  S
H614        O615   0.958       .  S
O615       Ni623   1.861       .  S
O615       Ni617   1.862       .  S
O615       Ni622   1.882       .  S
O616       Ni617   1.925       .  S
Ni617       O621   1.852       .  S
Ni617       O619   1.921       .  S
O618       Ni623   1.973       .  S
C620        O621   1.249       .  A
C620        C691   1.502       .  S
O625       Ni631   2.031       .  S
O625        C646   1.289       .  A
O626       Ni649   1.956       .  S
O626        C635   1.280       .  A
O627       Ni631   1.897       .  S
O627       Ni649   1.911       .  S
O627       Ni643   1.892       .  S
O627        H650   0.966       .  S
C628        O645   1.276       .  A
C628        O637   1.279       .  A
C628        C665   1.507       .  S
O629       Ni648   1.886       .  S
O629        C635   1.269       .  A
O630       Ni648   1.932       .  S
O630        C632   1.272       .  A
Ni631       O634   1.995       .  S
Ni631       O636   1.886       .  S
C632        O642   1.266       .  A
C632       C1568   1.488       .  S
O633       Ni649   1.908       .  S
O633        C639   1.286       .  A
O634        C639   1.298       .  A
O636        C638   1.264       .  A
O637       Ni648   1.920       .  S
C638        O644   1.272       .  A
C638        C724   1.487       .  S
C639        C698   1.502       .  S
H640        O641   0.958       .  S
O641       Ni649   1.861       .  S
O641       Ni643   1.862       .  S
O641       Ni648   1.882       .  S
O642       Ni643   1.925       .  S
Ni643       O647   1.852       .  S
Ni643       O645   1.921       .  S
O644       Ni649   1.973       .  S
C646        O647   1.248       .  A
C646        C795   1.502       .  S
O651       Ni657   1.886       .  S
O651        C672   1.269       .  A
O652       Ni675   1.852       .  S
O653       Ni657   1.882       .  S
O653       Ni675   1.862       .  S
O653       Ni669   1.861       .  S
O653        H676   0.958       .  S
C654        O671   1.286   1_554  A
C654        O663   1.298   1_554  A
O655       Ni674   2.031       .  S
O655        C661   1.289       .  A
O656        C658   1.264       .  A
Ni657       O660   1.920       .  S
Ni657       O662   1.932       .  S
C658        O668   1.272       .  A
O659       Ni675   1.921       .  S
O659        C665   1.276       .  A
O660        C665   1.279       .  A
O662        C664   1.272       .  A
C664        O670   1.266       .  A
C664        C768   1.488       .  S
H666        O667   0.966       .  S
O667       Ni675   1.892       .  S
O667       Ni669   1.911       .  S
O668       Ni669   1.973       .  S
Ni669       O673   1.956       .  S
Ni669       O671   1.908       .  S
O670       Ni675   1.925       .  S
C672        O673   1.280       .  A
C672        C794   1.487       .  S
O677       Ni683   2.031       .  S
O677        C698   1.289       .  A
O678       Ni701   1.956       .  S
O678        C687   1.280       .  A
O679       Ni683   1.897       .  S
O679       Ni701   1.911       .  S
O679       Ni695   1.892       .  S
O679        H702   0.966       .  S
C680        O697   1.276       .  A
C680        O689   1.279       .  A
C680        C717   1.507       .  S
O681       Ni700   1.886       .  S
O681        C687   1.269       .  A
O682       Ni700   1.932       .  S
O682        C684   1.272       .  A
Ni683       O686   1.995       .  S
Ni683       O688   1.886       .  S
C684        O694   1.266       .  A
O685       Ni701   1.908       .  S
O685        C691   1.286       .  A
O686        C691   1.298       .  A
O688        C690   1.264       .  A
O689       Ni700   1.920       .  S
C690        O696   1.272       .  A
H692        O693   0.958       .  S
O693       Ni701   1.861       .  S
O693       Ni695   1.862       .  S
O693       Ni700   1.882       .  S
O694       Ni695   1.925       .  S
Ni695       O699   1.852       .  S
Ni695       O697   1.920       .  S
O696       Ni701   1.973       .  S
C698        O699   1.248       .  A
O703       Ni709   1.886       .  S
O703        C724   1.269       .  A
O704       Ni727   1.853       .  S
O704        C713   1.249       .  A
O705       Ni709   1.883       .  S
O705       Ni727   1.862       .  S
O705       Ni721   1.861       .  S
O705        H728   0.958       .  S
C706        O723   1.286       .  A
C706        O715   1.298       .  A
C706        C765   1.503       .  S
O707       Ni726   2.031       .  S
O707        C713   1.289       .  A
O708       Ni726   1.886       .  S
O708        C710   1.264       .  A
Ni709       O712   1.920       .  S
Ni709       O714   1.933       .  S
C710        O720   1.272       .  A
C710        C739   1.487       .  S
O711       Ni727   1.920       .  S
O711        C717   1.276       .  A
O712        C717   1.279       .  A
O714        C716   1.272       .  A
O715       Ni726   1.995       .  S
C716        O722   1.266       .  A
H718        O719   0.966       .  S
O719       Ni727   1.892       .  S
O719       Ni721   1.912       .  S
O719       Ni726   1.897       .  S
O720       Ni721   1.973       .  S
Ni721       O725   1.956       .  S
Ni721       O723   1.908       .  S
O722       Ni727   1.925       .  S
C724        O725   1.281       .  A
O729       Ni735   2.032       .  S
O729        C750   1.289       .  A
O730       Ni753   1.957       .  S
O730        C739   1.280       .  A
O731       Ni753   1.912       .  S
O731       Ni747   1.892       .  S
O731        H754   0.966       .  S
C732        O749   1.276       .  A
C732        O741   1.279       .  A
C732        C769   1.507       .  S
O733       Ni752   1.886       .  S
O733        C739   1.269       .  A
O734       Ni752   1.933       .  S
O734        C736   1.272       .  A
C736        O746   1.266       .  A
C736       C1464   1.488   1_455  S
O737       Ni753   1.908       .  S
O737        C743   1.286       .  A
O738        C743   1.298       .  A
O740        C742   1.264       .  A
O741       Ni752   1.920       .  S
C742        O748   1.272       .  A
H744        O745   0.958       .  S
O745       Ni753   1.861       .  S
O745       Ni747   1.862       .  S
O745       Ni752   1.883       .  S
O746       Ni747   1.925       .  S
Ni747       O751   1.853       .  S
Ni747       O749   1.920       .  S
O748       Ni753   1.973       .  S
O755       Ni761   1.886       .  S
O755        C776   1.269       .  A
O756       Ni779   1.853       .  S
O756        C765   1.249       .  A
O757       Ni761   1.883       .  S
O757       Ni779   1.862       .  S
O757       Ni773   1.861       .  S
O757        H780   0.958       .  S
C758        O775   1.286   1_554  A
C758        O767   1.298   1_554  A
C758        C817   1.502       .  S
O759       Ni778   2.032       .  S
O759        C765   1.289       .  A
O760       Ni778   1.886       .  S
O760        C762   1.264       .  A
Ni761       O764   1.920       .  S
Ni761       O766   1.933       .  S
C762        O772   1.272       .  A
C762        C791   1.487       .  S
O763       Ni779   1.920       .  S
O763        C769   1.276       .  A
O764        C769   1.279       .  A
O766        C768   1.272       .  A
O767       Ni778   1.995       .  S
C768        O774   1.266       .  A
H770        O771   0.966       .  S
O771       Ni779   1.892       .  S
O771       Ni773   1.912       .  S
O771       Ni778   1.897       .  S
O772       Ni773   1.973       .  S
Ni773       O777   1.957       .  S
Ni773       O775   1.908       .  S
O774       Ni779   1.925       .  S
C776        O777   1.280       .  A
O781       Ni787   2.031       .  S
O781        C802   1.289       .  A
O782       Ni805   1.957       .  S
O782       C1623   1.280       .  A
O783       Ni787   1.897       .  S
O783       Ni805   1.912       .  S
O783       Ni799   1.892       .  S
O783        H806   0.966       .  S
C784        O801   1.276       .  A
C784       O1625   1.279       .  A
C784       C1653   1.507       .  S
O785       Ni804   1.886       .  S
O785        C791   1.269       .  A
O786       Ni804   1.932       .  S
O786       C1620   1.272   1_455  A
Ni787       O790   1.995       .  S
Ni787       O792   1.886       .  S
C788       O1618   1.272       .  A
C788        O798   1.266       .  A
C788       C1386   1.488       .  S
O789       Ni805   1.908       .  S
O789        C795   1.286       .  A
O790        C795   1.298       .  A
C791       O1614   1.280       .  A
O792        C794   1.264       .  A
O793       Ni804   1.920   1_554  S
O793       C1616   1.279   1_455  A
C794        O800   1.272       .  A
H796        O797   0.958       .  S
O797       Ni805   1.861       .  S
O797       Ni799   1.862       .  S
O797      Ni1636   1.882       .  S
O798       Ni799   1.925       .  S
Ni799       O803   1.852       .  S
Ni799       O801   1.920   1_556  S
O800       Ni805   1.973       .  S
C802        O803   1.249       .  A
Ni804      O1629   1.882   1_455  S
O807       Ni813   1.886       .  S
O807        C828   1.269       .  A
O808       Ni831   1.852       .  S
O808        C817   1.249       .  A
O809      Ni1645   1.883   1_455  S
O809       Ni831   1.862       .  S
O809       Ni825   1.861       .  S
O809        H832   0.958       .  S
C810        O827   1.286       .  A
C810        O819   1.298       .  A
O811       Ni830   2.032       .  S
O811        C817   1.289       .  A
O812       Ni830   1.886       .  S
O812        C814   1.264       .  A
Ni813       O816   1.920       .  S
Ni813       O818   1.933       .  S
Ni813      O1641   1.883       .  S
C814        O824   1.272       .  A
O815       Ni831   1.920       .  S
O815        C821   1.276   1_455  A
O816       C1653   1.279       .  A
O818       C1652   1.272       .  A
O819       Ni830   1.995       .  S
C820       O1650   1.272       .  A
C820        O826   1.266   1_655  A
C820       C1366   1.488       .  S
C821       O1648   1.279       .  A
C821       C1616   1.507       .  S
H822        O823   0.966       .  S
O823       Ni831   1.892       .  S
O823       Ni825   1.912       .  S
O823       Ni830   1.897       .  S
O824       Ni825   1.973       .  S
Ni825       O829   1.956   1_455  S
Ni825       O827   1.908       .  S
O826       Ni831   1.925       .  S
C828       O1661   1.280       .  A
O829       C1660   1.280       .  A
O833       Ni839   1.886       .  S
O833        C854   1.269       .  A
O834       Ni857   1.853       .  S
O834        C843   1.249       .  A
O835       Ni839   1.883       .  S
O835       Ni857   1.862       .  S
O835       Ni851   1.861       .  S
O835        H858   0.958       .  S
C836        O853   1.286       .  A
C836        O845   1.298       .  A
C836       C1129   1.502       .  S
O837       Ni856   2.032       .  S
O837        C843   1.289       .  A
O838       Ni856   1.886       .  S
O838        C840   1.264       .  A
Ni839       O842   1.920       .  S
Ni839       O844   1.933       .  S
C840        O850   1.272       .  A
C840       C1103   1.487       .  S
O841       Ni857   1.920       .  S
O841        C847   1.276       .  A
O842        C847   1.279       .  A
C843       C1226   1.503       .  S
O844        C846   1.272       .  A
O845       Ni856   1.995       .  S
C846        O852   1.266       .  A
C847        C862   1.507       .  S
H848        O849   0.966       .  S
O849       Ni857   1.892       .  S
O849       Ni851   1.912       .  S
O849       Ni856   1.897       .  S
O850       Ni851   1.973       .  S
Ni851       O855   1.957       .  S
Ni851       O853   1.908       .  S
O852       Ni857   1.925       .  S
C854        O855   1.281       .  A
C854        C898   1.487       .  S
O859       Ni865   2.032       .  S
O859        C880   1.289       .  A
O860       Ni883   1.957       .  S
O860        C869   1.280       .  A
O861      Ni1281   1.897   1_545  S
O861       Ni883   1.912       .  S
O861       Ni877   1.892       .  S
O861        H884   0.966       .  S
C862        O879   1.276       .  A
C862        O871   1.279       .  A
O863       Ni882   1.886       .  S
O863        C869   1.269       .  A
O864       Ni882   1.932       .  S
O864        C866   1.272       .  A
Ni865       O868   1.995       .  S
Ni865       O870   1.886       .  S
Ni865      O1277   1.897       .  S
C866        O876   1.266       .  A
C866       C1022   1.488       .  S
O867       Ni883   1.908       .  S
O867        C873   1.286       .  A
O868       C1289   1.298       .  A
C869       C1230   1.487       .  S
O870       C1288   1.264       .  A
O871       Ni882   1.920       .  S
C872       O1286   1.264       .  A
C872        O878   1.272       .  A
C872        C958   1.487       .  S
C873       O1284   1.298       .  A
C873        C984   1.502   1_554  S
H874        O875   0.958       .  S
O875       Ni883   1.861       .  S
O875       Ni877   1.862       .  S
O875       Ni882   1.883       .  S
O876       Ni877   1.925       .  S
Ni877       O881   1.853       .  S
Ni877       O879   1.920       .  S
O878       Ni883   1.973       .  S
C880       O1297   1.249       .  A
C880        C899   1.503       .  S
O881       C1296   1.249   1_545  A
O885       Ni891   2.031       .  S
O885        C906   1.289       .  A
O886      Ni1325   1.956   1_545  S
O886        C895   1.280       .  A
O887       Ni891   1.897       .  S
O887       Ni909   1.912       .  S
O887       Ni903   1.892       .  S
O887        H910   0.966       .  S
C888        O905   1.276       .  A
C888        O897   1.279       .  A
C888       C1341   1.507       .  S
O889       Ni908   1.886       .  S
O889       C1311   1.269       .  A
O890       Ni908   1.933       .  S
O890        C892   1.272       .  A
Ni891       O894   1.995       .  S
Ni891      O1312   1.886       .  S
C892        O902   1.266       .  A
C892       C1100   1.488       .  S
O893       Ni909   1.908       .  S
O893        C899   1.286       .  A
O894        C899   1.298       .  A
C895       O1305   1.269   1_545  A
C895        C996   1.487       .  S
O896      Ni1307   1.886   1_545  S
O896        C898   1.264       .  A
O897       Ni908   1.920       .  S
C898        O904   1.272       .  A
H900       O1317   0.958   1_545  S
O901       Ni909   1.861       .  S
O901       Ni903   1.862       .  S
O901       Ni908   1.883       .  S
O901       H1316   0.958       .  S
O902       Ni903   1.925       .  S
Ni903       O907   1.852       .  S
Ni903       O905   1.920       .  S
O904      Ni1325   1.973   1_545  S
C906        O907   1.249       .  A
C906       C1159   1.502       .  S
Ni909      O1302   1.956       .  S
Ni909      O1320   1.973       .  S
O911       Ni917   1.886       .  S
O911       C1348   1.269   1_545  A
O912       Ni935   1.852       .  S
O912        C921   1.248       .  A
O913       Ni917   1.882       .  S
O913       Ni935   1.862       .  S
O913       Ni929   1.861   1_545  S
O913       H1352   0.958   1_545  S
C914        O931   1.286       .  A
C914       O1339   1.298       .  A
C914       C1493   1.502       .  S
O915       Ni934   2.031       .  S
O915        C921   1.289       .  A
O916      Ni1350   1.886       .  S
O916        C918   1.264       .  A
Ni917       O920   1.920       .  S
Ni917       O922   1.932       .  S
C918        O928   1.272       .  A
C918       C1051   1.487       .  S
O919       Ni935   1.920       .  S
O919        C925   1.276       .  A
O920        C925   1.279       .  A
C921        C992   1.502       .  S
O922        C924   1.272       .  A
O923       Ni934   1.995       .  S
O923       C1330   1.298   1_545  A
C924        O930   1.266       .  A
C924       C1132   1.488       .  S
C925       C1304   1.507   1_545  S
H926        O927   0.966       .  S
O927       Ni935   1.891       .  S
O927       Ni929   1.911   1_545  S
O927       Ni934   1.897       .  S
O928      Ni1345   1.973       .  S
Ni929      O1344   1.973       .  S
Ni929      O1349   1.956       .  S
Ni929      O1347   1.908       .  S
O930       Ni935   1.925       .  S
O931      Ni1345   1.908       .  S
C932       O1327   1.269       .  A
C932        O933   1.280       .  A
C932       C1158   1.487       .  S
O933      Ni1345   1.956       .  S
Ni934      O1332   1.886   1_545  S
H936       O1329   0.958       .  S
O937       Ni943   1.886       .  S
O937       C1374   1.269       .  A
O938       Ni961   1.852       .  S
O938        C947   1.249       .  A
O939       Ni961   1.862       .  S
O939       Ni955   1.861       .  S
O939       H1378   0.958       .  S
C940        O957   1.286       .  A
C940        O949   1.298       .  A
C940        C999   1.502       .  S
O941       Ni960   2.031       .  S
O941        C947   1.289       .  A
O942      Ni1376   1.886   1_545  S
O942        C944   1.264       .  A
Ni943       O946   1.920       .  S
Ni943       O948   1.932       .  S
C944        O954   1.272       .  A
C944       C1025   1.487       .  S
O945       Ni961   1.920       .  S
O945        C951   1.276       .  A
C947       C1070   1.502       .  S
O949       Ni960   1.995       .  S
C950        O956   1.266       .  A
H952        O953   0.966       .  S
O953       Ni961   1.891       .  S
O953       Ni955   1.911       .  S
O953       Ni960   1.897       .  S
O954      Ni1371   1.973   1_545  S
Ni955      O1370   1.973       .  S
Ni955      O1375   1.956   1_655  S
Ni955       O957   1.908       .  S
O956       Ni961   1.925       .  S
C958       O1353   1.269   1_545  A
O959      Ni1371   1.956   1_445  S
Ni960      O1358   1.886       .  S
H962       O1355   0.958   1_545  S
O963       Ni969   2.031       .  S
O963        C984   1.289       .  A
O964        C973   1.280       .  A
O965       Ni969   1.897       .  S
O965      Ni1403   1.912   1_545  S
O965       Ni981   1.892       .  S
O965        H988   0.966       .  S
C966        O983   1.276       .  A
O967       Ni986   1.886       .  S
O967       C1389   1.269   1_545  A
O968       Ni986   1.933       .  S
Ni969       O972   1.995       .  S
Ni969      O1390   1.886   1_545  S
C970        O980   1.266       .  A
O971       Ni987   1.908       .  S
O971        C977   1.286       .  A
O972       C1393   1.298   1_545  A
C973       O1383   1.269       .  A
C973       C1074   1.487       .  S
O974      Ni1385   1.886       .  S
O974        C976   1.264       .  A
O975       Ni986   1.920   1_554  S
C976        O982   1.272       .  A
C976       C1192   1.487       .  S
C977       O1388   1.298       .  A
C977       C1582   1.502       .  S
H978       O1395   0.958       .  S
O979      Ni1403   1.861   1_545  S
O979       Ni981   1.862       .  S
O979       H1394   0.958   1_545  S
O980       Ni981   1.925       .  S
Ni981       O985   1.852       .  S
Ni981       O983   1.921   1_556  S
O982       Ni987   1.973       .  S
C984        O985   1.249       .  A
Ni987      O1381   1.912       .  S
Ni987      O1395   1.861       .  S
O989       Ni995   1.886       .  S
O989       C1010   1.269       .  A
O990      Ni1013   1.852       .  S
O990       C1415   1.248   1_545  A
O991       Ni995   1.882       .  S
O991      Ni1013   1.862       .  S
O991      Ni1007   1.861       .  S
O991       H1014   0.958       .  S
C992       O1009   1.286       .  A
C992       O1417   1.298       .  A
O993      Ni1012   2.031       .  S
O993        C999   1.289       .  A
O994      Ni1012   1.886       .  S
O994       C1412   1.264       .  A
Ni995       O998   1.920       .  S
Ni995      O1000   1.932       .  S
C996       O1410   1.264       .  A
C996       O1006   1.272       .  A
O997      Ni1013   1.921       .  S
O997       C1003   1.276       .  A
O998       C1003   1.279       .  A
C999       O1406   1.248       .  A
O1000      C1002   1.272       .  A
O1001     Ni1012   1.995       .  S
O1001      C1408   1.298       .  A
C1002      O1008   1.266       .  A
C1003      C1018   1.507       .  S
H1004      O1005   0.966       .  S
O1005     Ni1013   1.892       .  S
O1005     Ni1007   1.911       .  S
O1005     Ni1428   1.897   1_545  S
O1006     Ni1007   1.973       .  S
Ni1007     O1011   1.956       .  S
Ni1007     O1009   1.908       .  S
O1008     Ni1013   1.925       .  S
C1010      O1011   1.280       .  A
C1010      C1106   1.487       .  S
Ni1012     O1421   1.897       .  S
O1015     Ni1021   2.031       .  S
O1015      C1036   1.289       .  A
O1016     Ni1039   1.956       .  S
O1016      C1025   1.280       .  A
O1017     Ni1021   1.897       .  S
O1017     Ni1039   1.911       .  S
O1017     Ni1033   1.892       .  S
O1017      H1040   0.966       .  S
C1018      O1035   1.276       .  A
C1018      O1027   1.279       .  A
O1019     Ni1038   1.886       .  S
O1019      C1025   1.269       .  A
O1020     Ni1038   1.932       .  S
O1020      C1022   1.272       .  A
Ni1021     O1024   1.995       .  S
Ni1021     O1026   1.886       .  S
C1022      O1032   1.266       .  A
O1023     Ni1039   1.908       .  S
O1023      C1029   1.286       .  A
O1024      C1029   1.298       .  A
O1026      C1028   1.264       .  A
O1027     Ni1038   1.920       .  S
C1028      O1034   1.272       .  A
C1028      C1244   1.487       .  S
C1029      C1218   1.502   1_554  S
H1030      O1031   0.958       .  S
O1031     Ni1039   1.861       .  S
O1031     Ni1033   1.862       .  S
O1031     Ni1038   1.882       .  S
O1032     Ni1033   1.925       .  S
Ni1033     O1037   1.852       .  S
Ni1033     O1035   1.921       .  S
O1034     Ni1039   1.973       .  S
C1036      O1037   1.249       .  A
C1036      C1107   1.502       .  S
O1041     Ni1047   2.031       .  S
O1041      C1062   1.289       .  A
O1042     Ni1065   1.956       .  S
O1042      C1051   1.280       .  A
O1043     Ni1047   1.897       .  S
O1043     Ni1065   1.911       .  S
O1043     Ni1059   1.892       .  S
O1043      H1066   0.966       .  S
C1044      O1061   1.276       .  A
C1044      O1053   1.279       .  A
C1044      C1081   1.507       .  S
O1045     Ni1064   1.886       .  S
O1045      C1051   1.269       .  A
O1046     Ni1064   1.932       .  S
O1046      C1048   1.272       .  A
Ni1047     O1050   1.995       .  S
Ni1047     O1052   1.886       .  S
C1048      O1058   1.266       .  A
O1049     Ni1065   1.908       .  S
O1049      C1055   1.286       .  A
O1050      C1055   1.298       .  A
O1052      C1054   1.264       .  A
O1053     Ni1064   1.920       .  S
C1054      O1060   1.272       .  A
C1054      C1140   1.487       .  S
C1055      C1114   1.502       .  S
H1056      O1057   0.958       .  S
O1057     Ni1065   1.861       .  S
O1057     Ni1059   1.862       .  S
O1057     Ni1064   1.882       .  S
O1058     Ni1059   1.925       .  S
Ni1059     O1063   1.852       .  S
Ni1059     O1061   1.921       .  S
O1060     Ni1065   1.973       .  S
C1062      O1063   1.248       .  A
C1062      C1211   1.502       .  S
O1067     Ni1073   1.886       .  S
O1067      C1088   1.269       .  A
O1068     Ni1091   1.852       .  S
O1068      C1493   1.249       .  A
O1069     Ni1073   1.882       .  S
O1069     Ni1091   1.862       .  S
O1069     Ni1085   1.861       .  S
O1069      H1092   0.958       .  S
C1070      O1087   1.286   1_554  A
C1070      O1079   1.298   1_554  A
O1071     Ni1090   2.031   1_545  S
O1071      C1077   1.289   1_545  A
O1072     Ni1506   1.886       .  S
O1072      C1074   1.264       .  A
Ni1073     O1076   1.920       .  S
Ni1073     O1078   1.932       .  S
C1074      O1084   1.272       .  A
O1075     Ni1091   1.921       .  S
O1075      C1081   1.276       .  A
O1076      C1081   1.279       .  A
C1077      O1484   1.249       .  A
C1077      C1330   1.502       .  S
O1078      C1080   1.272       .  A
O1079     Ni1506   1.995       .  S
C1080      O1086   1.266       .  A
C1080      C1184   1.488       .  S
H1082      O1083   0.966       .  S
O1083     Ni1091   1.892       .  S
O1083     Ni1085   1.911       .  S
O1083     Ni1506   1.897       .  S
O1084     Ni1085   1.973       .  S
Ni1085     O1089   1.956       .  S
Ni1085     O1087   1.908       .  S
O1086     Ni1091   1.925       .  S
C1088      O1089   1.280       .  A
C1088      C1210   1.487       .  S
Ni1090     O1488   1.886       .  S
Ni1090     O1495   1.995       .  S
Ni1090     O1499   1.897       .  S
O1093     Ni1099   2.031       .  S
O1093      C1114   1.289       .  A
O1094     Ni1117   1.956       .  S
O1094      C1103   1.280       .  A
O1095     Ni1099   1.897       .  S
O1095     Ni1117   1.911       .  S
O1095     Ni1111   1.892       .  S
O1095      H1118   0.966       .  S
C1096      O1113   1.276       .  A
C1096      O1105   1.279       .  A
C1096      C1133   1.507       .  S
O1097     Ni1116   1.886       .  S
O1097      C1103   1.269       .  A
O1098     Ni1116   1.932       .  S
O1098      C1100   1.272       .  A
Ni1099     O1102   1.995       .  S
Ni1099     O1104   1.886       .  S
C1100      O1110   1.266       .  A
O1101     Ni1117   1.908       .  S
O1101      C1107   1.286       .  A
O1102      C1107   1.298       .  A
O1104      C1106   1.264       .  A
O1105     Ni1116   1.920       .  S
C1106      O1112   1.272       .  A
H1108      O1109   0.958       .  S
O1109     Ni1117   1.861       .  S
O1109     Ni1111   1.862       .  S
O1109     Ni1116   1.882       .  S
O1110     Ni1111   1.925       .  S
Ni1111     O1115   1.852       .  S
Ni1111     O1113   1.920       .  S
O1112     Ni1117   1.973       .  S
C1114      O1115   1.248       .  A
O1119     Ni1125   1.886       .  S
O1119      C1140   1.269       .  A
O1120     Ni1143   1.853       .  S
O1120      C1129   1.249       .  A
O1121     Ni1125   1.883       .  S
O1121     Ni1143   1.862       .  S
O1121     Ni1137   1.861       .  S
O1121      H1144   0.958       .  S
C1122      O1139   1.286       .  A
C1122      O1131   1.298       .  A
C1122      C1181   1.503       .  S
O1123     Ni1142   2.031       .  S
O1123      C1129   1.289       .  A
O1124     Ni1142   1.886       .  S
O1124      C1126   1.264       .  A
Ni1125     O1128   1.920       .  S
Ni1125     O1130   1.933       .  S
C1126      O1136   1.272       .  A
C1126      C1155   1.487       .  S
O1127     Ni1143   1.920       .  S
O1127      C1133   1.276       .  A
O1128      C1133   1.279       .  A
O1130      C1132   1.272       .  A
O1131     Ni1142   1.995       .  S
C1132      O1138   1.266       .  A
H1134      O1135   0.966       .  S
O1135     Ni1143   1.892       .  S
O1135     Ni1137   1.912       .  S
O1135     Ni1142   1.897       .  S
O1136     Ni1137   1.973       .  S
Ni1137     O1141   1.956       .  S
Ni1137     O1139   1.908       .  S
O1138     Ni1143   1.925       .  S
C1140      O1141   1.281       .  A
O1145     Ni1151   2.032   1_545  S
O1145      C1166   1.289   1_545  A
O1146     Ni1169   1.957       .  S
O1146      C1155   1.280       .  A
O1147     Ni1567   1.897       .  S
O1147     Ni1169   1.912       .  S
O1147     Ni1163   1.892       .  S
O1147      H1170   0.966       .  S
C1148      O1165   1.276       .  A
C1148      O1157   1.279       .  A
C1148      C1185   1.507       .  S
O1149     Ni1168   1.886       .  S
O1149      C1155   1.269       .  A
O1150     Ni1168   1.933       .  S
O1150      C1152   1.272       .  A
Ni1151     O1570   1.995       .  S
Ni1151     O1572   1.886       .  S
Ni1151     O1563   1.897       .  S
C1152      O1162   1.266       .  A
O1153     Ni1169   1.908       .  S
O1153      C1159   1.286       .  A
O1154     Ni1567   1.995       .  S
O1154      C1159   1.298       .  A
O1156     Ni1567   1.886       .  S
O1156      C1158   1.264       .  A
O1157     Ni1168   1.920       .  S
C1158      O1164   1.272       .  A
H1160      O1161   0.958       .  S
O1161     Ni1169   1.861       .  S
O1161     Ni1163   1.862       .  S
O1161     Ni1168   1.883       .  S
O1162     Ni1163   1.925       .  S
Ni1163     O1167   1.853       .  S
Ni1163     O1165   1.920       .  S
O1164     Ni1169   1.973       .  S
C1166      O1583   1.249       .  A
C1166      C1393   1.502       .  S
O1167      C1582   1.249       .  A
O1171     Ni1177   1.886       .  S
O1171      C1192   1.269       .  A
O1172     Ni1195   1.853       .  S
O1172      C1181   1.249       .  A
O1173     Ni1177   1.883       .  S
O1173     Ni1195   1.862       .  S
O1173     Ni1189   1.861       .  S
O1173      H1196   0.958       .  S
C1174      O1191   1.286   1_554  A
C1174      O1183   1.298   1_554  A
C1174      C1233   1.502       .  S
O1175     Ni1194   2.032       .  S
O1175      C1181   1.289       .  A
O1176     Ni1194   1.886       .  S
O1176      C1178   1.264       .  A
Ni1177     O1180   1.920       .  S
Ni1177     O1182   1.933       .  S
C1178      O1188   1.272       .  A
C1178      C1207   1.487       .  S
O1179     Ni1195   1.920       .  S
O1179      C1185   1.276       .  A
O1180      C1185   1.279       .  A
O1182      C1184   1.272       .  A
O1183     Ni1194   1.995       .  S
C1184      O1190   1.266       .  A
H1186      O1187   0.966       .  S
O1187     Ni1195   1.892       .  S
O1187     Ni1189   1.912       .  S
O1187     Ni1194   1.897       .  S
O1188     Ni1189   1.973       .  S
Ni1189     O1193   1.957       .  S
Ni1189     O1191   1.908       .  S
O1190     Ni1195   1.925       .  S
C1192      O1193   1.280       .  A
O1197     Ni1203   2.031       .  S
O1197      C1218   1.289       .  A
O1198     Ni1221   1.957   1_455  S
O1199     Ni1203   1.897       .  S
O1199     Ni1221   1.912       .  S
O1199     Ni1215   1.892       .  S
O1199      H1222   0.966       .  S
C1200      O1217   1.276       .  A
O1201     Ni1220   1.886       .  S
O1201      C1207   1.269       .  A
O1202     Ni1220   1.932       .  S
Ni1203     O1206   1.995       .  S
Ni1203     O1208   1.886       .  S
C1204      O1214   1.266       .  A
O1205     Ni1221   1.908       .  S
O1205      C1211   1.286       .  A
O1206      C1211   1.298       .  A
O1208      C1210   1.264       .  A
O1209     Ni1220   1.920   1_554  S
C1210      O1216   1.272       .  A
H1212      O1213   0.958       .  S
O1213     Ni1221   1.861       .  S
O1213     Ni1215   1.862       .  S
O1214     Ni1215   1.925       .  S
Ni1215     O1219   1.852       .  S
Ni1215     O1217   1.920   1_556  S
O1216     Ni1221   1.973       .  S
C1218      O1219   1.249       .  A
O1223     Ni1229   1.886       .  S
O1223      C1244   1.269       .  A
O1224     Ni1247   1.852       .  S
O1224      C1233   1.249       .  A
O1225     Ni1247   1.862       .  S
O1225     Ni1241   1.861       .  S
O1225      H1248   0.958       .  S
C1226      O1243   1.286       .  A
C1226      O1235   1.298       .  A
O1227     Ni1246   2.032       .  S
O1227      C1233   1.289       .  A
O1228     Ni1246   1.886       .  S
O1228      C1230   1.264       .  A
Ni1229     O1232   1.920       .  S
Ni1229     O1234   1.933       .  S
C1230      O1240   1.272       .  A
O1231     Ni1247   1.920       .  S
O1231      C1237   1.276       .  A
O1235     Ni1246   1.995       .  S
C1236      O1242   1.266       .  A
H1238      O1239   0.966       .  S
O1239     Ni1247   1.892       .  S
O1239     Ni1241   1.912       .  S
O1239     Ni1246   1.897       .  S
O1240     Ni1241   1.973       .  S
Ni1241     O1245   1.956       .  S
Ni1241     O1243   1.908       .  S
O1242     Ni1247   1.925       .  S
O1249     Ni1255   1.886       .  S
O1249      C1270   1.269       .  A
O1250     Ni1273   1.853       .  S
O1250      C1259   1.249       .  A
O1251     Ni1255   1.883       .  S
O1251     Ni1273   1.862       .  S
O1251     Ni1267   1.861       .  S
O1251      H1274   0.958       .  S
C1252      O1269   1.286       .  A
C1252      O1261   1.298       .  A
C1252      C1545   1.502       .  S
O1253     Ni1272   2.032       .  S
O1253      C1259   1.289       .  A
O1254     Ni1272   1.886       .  S
O1254      C1256   1.264       .  A
Ni1255     O1258   1.920       .  S
Ni1255     O1260   1.933       .  S
C1256      O1266   1.272       .  A
C1256      C1519   1.487       .  S
O1257     Ni1273   1.920       .  S
O1257      C1263   1.276       .  A
O1258      C1263   1.279       .  A
C1259      C1642   1.503       .  S
O1260      C1262   1.272       .  A
O1261     Ni1272   1.995       .  S
C1262      O1268   1.266       .  A
C1263      C1278   1.507       .  S
H1264      O1265   0.966       .  S
O1265     Ni1273   1.892       .  S
O1265     Ni1267   1.912       .  S
O1265     Ni1272   1.897       .  S
O1266     Ni1267   1.973       .  S
Ni1267     O1271   1.957       .  S
Ni1267     O1269   1.908       .  S
O1268     Ni1273   1.925       .  S
C1270      O1271   1.281       .  A
C1270      C1314   1.487       .  S
O1275     Ni1281   2.032       .  S
O1275      C1296   1.289       .  A
O1276     Ni1299   1.957       .  S
O1276      C1285   1.280       .  A
O1277     Ni1299   1.912       .  S
O1277     Ni1293   1.892       .  S
O1277      H1300   0.966       .  S
C1278      O1295   1.276       .  A
C1278      O1287   1.279       .  A
O1279     Ni1298   1.886       .  S
O1279      C1285   1.269       .  A
O1280     Ni1298   1.932       .  S
O1280      C1282   1.272       .  A
Ni1281     O1284   1.995   1_565  S
Ni1281     O1286   1.886   1_565  S
C1282      O1292   1.266       .  A
C1282      C1438   1.488       .  S
O1283     Ni1299   1.908       .  S
O1283      C1289   1.286       .  A
C1285      C1646   1.487       .  S
O1287     Ni1298   1.920       .  S
C1288      O1294   1.272       .  A
C1288      C1374   1.487       .  S
C1289      C1400   1.502   1_554  S
H1290      O1291   0.958       .  S
O1291     Ni1299   1.861       .  S
O1291     Ni1293   1.862       .  S
O1291     Ni1298   1.883       .  S
O1292     Ni1293   1.925       .  S
Ni1293     O1297   1.853       .  S
Ni1293     O1295   1.920       .  S
O1294     Ni1299   1.973       .  S
C1296      C1315   1.503       .  S
O1301     Ni1307   2.031       .  S
O1301      C1322   1.289       .  A
O1302      C1311   1.280       .  A
O1303     Ni1307   1.897       .  S
O1303     Ni1325   1.912       .  S
O1303     Ni1319   1.892       .  S
O1303      H1326   0.966       .  S
C1304      O1321   1.276       .  A
C1304      O1313   1.279       .  A
O1305     Ni1324   1.886       .  S
O1306     Ni1324   1.933       .  S
O1306      C1308   1.272       .  A
Ni1307     O1310   1.995       .  S
C1308      O1318   1.266       .  A
C1308      C1516   1.488       .  S
O1309     Ni1325   1.908   1_545  S
O1309      C1315   1.286   1_545  A
O1310      C1315   1.298       .  A
C1311      C1412   1.487       .  S
O1312      C1314   1.264       .  A
O1313     Ni1324   1.920       .  S
C1314      O1320   1.272       .  A
O1317     Ni1325   1.861       .  S
O1317     Ni1319   1.862       .  S
O1317     Ni1324   1.883       .  S
O1318     Ni1319   1.925       .  S
Ni1319     O1323   1.852       .  S
Ni1319     O1321   1.920       .  S
C1322      O1323   1.249       .  A
C1322      C1575   1.502       .  S
O1327     Ni1333   1.886       .  S
O1328     Ni1351   1.852       .  S
O1328      C1337   1.249       .  A
O1329     Ni1333   1.882       .  S
O1329     Ni1351   1.862       .  S
O1329     Ni1345   1.861       .  S
C1330      O1347   1.286       .  A
O1331     Ni1350   2.031       .  S
O1331      C1337   1.289       .  A
O1332      C1334   1.264       .  A
Ni1333     O1336   1.920       .  S
Ni1333     O1338   1.932       .  S
C1334      O1344   1.272       .  A
C1334      C1467   1.487       .  S
O1335     Ni1351   1.920       .  S
O1335      C1341   1.276       .  A
O1336      C1341   1.279       .  A
C1337      C1408   1.502       .  S
O1338      C1340   1.272       .  A
O1339     Ni1350   1.995       .  S
C1340      O1346   1.266       .  A
C1340      C1548   1.488       .  S
H1342      O1343   0.966       .  S
O1343     Ni1351   1.891       .  S
O1343     Ni1345   1.911       .  S
O1343     Ni1350   1.897       .  S
O1346     Ni1351   1.925       .  S
C1348      O1349   1.280       .  A
C1348      C1574   1.487       .  S
O1353     Ni1359   1.886       .  S
O1354     Ni1377   1.852       .  S
O1354      C1363   1.249       .  A
O1355     Ni1377   1.862       .  S
O1355     Ni1371   1.861       .  S
C1356      O1373   1.286   1_565  A
C1356      O1365   1.298       .  A
C1356      C1415   1.502       .  S
O1357     Ni1376   2.031       .  S
O1357      C1363   1.289       .  A
O1358      C1360   1.264       .  A
Ni1359     O1362   1.920       .  S
Ni1359     O1364   1.932       .  S
C1360      O1370   1.272       .  A
C1360      C1441   1.487       .  S
O1361     Ni1377   1.920       .  S
O1361      C1367   1.276       .  A
C1363      C1486   1.502       .  S
O1365     Ni1376   1.995       .  S
C1366      O1372   1.266       .  A
H1368      O1369   0.966       .  S
O1369     Ni1377   1.891       .  S
O1369     Ni1371   1.911       .  S
O1369     Ni1376   1.897       .  S
Ni1371     O1373   1.908   1_565  S
O1372     Ni1377   1.925       .  S
O1379     Ni1385   2.031       .  S
O1379      C1400   1.289       .  A
O1380      C1389   1.280       .  A
O1381     Ni1385   1.897       .  S
O1381     Ni1397   1.892       .  S
O1381      H1404   0.966       .  S
C1382      O1399   1.276       .  A
O1383     Ni1402   1.886       .  S
O1384     Ni1402   1.933       .  S
Ni1385     O1388   1.995       .  S
C1386      O1396   1.266       .  A
O1387     Ni1403   1.908       .  S
O1387      C1393   1.286       .  A
C1389      C1490   1.487       .  S
O1390      C1392   1.264       .  A
O1391     Ni1402   1.920   1_554  S
C1392      O1398   1.272       .  A
C1392      C1608   1.487       .  S
O1395     Ni1397   1.862       .  S
O1396     Ni1397   1.925       .  S
Ni1397     O1401   1.852       .  S
Ni1397     O1399   1.920   1_556  S
O1398     Ni1403   1.973       .  S
C1400      O1401   1.249       .  A
O1405     Ni1411   1.886       .  S
O1405      C1426   1.269       .  A
O1406     Ni1429   1.852       .  S
O1407     Ni1411   1.882       .  S
O1407     Ni1429   1.862       .  S
O1407     Ni1423   1.861       .  S
O1407      H1430   0.958       .  S
C1408      O1425   1.286       .  A
O1409     Ni1428   2.031       .  S
O1409      C1415   1.289       .  A
O1410     Ni1428   1.886   1_545  S
Ni1411     O1414   1.920       .  S
Ni1411     O1416   1.932       .  S
C1412      O1422   1.272       .  A
O1413     Ni1429   1.921       .  S
O1413      C1419   1.276       .  A
O1414      C1419   1.279       .  A
O1416      C1418   1.272       .  A
O1417     Ni1428   1.995   1_545  S
C1418      O1424   1.266       .  A
C1419      C1434   1.507       .  S
H1420      O1421   0.966       .  S
O1421     Ni1429   1.892       .  S
O1421     Ni1423   1.911       .  S
O1422     Ni1423   1.973       .  S
Ni1423     O1427   1.956       .  S
Ni1423     O1425   1.908       .  S
O1424     Ni1429   1.925       .  S
C1426      O1427   1.280       .  A
C1426      C1522   1.487       .  S
O1431     Ni1437   2.031       .  S
O1431      C1452   1.289       .  A
O1432     Ni1455   1.956       .  S
O1432      C1441   1.280       .  A
O1433     Ni1437   1.897       .  S
O1433     Ni1455   1.911       .  S
O1433     Ni1449   1.892       .  S
O1433      H1456   0.966       .  S
C1434      O1451   1.276       .  A
C1434      O1443   1.279       .  A
O1435     Ni1454   1.886       .  S
O1435      C1441   1.269       .  A
O1436     Ni1454   1.932       .  S
O1436      C1438   1.272       .  A
Ni1437     O1440   1.995       .  S
Ni1437     O1442   1.886       .  S
C1438      O1448   1.266       .  A
O1439     Ni1455   1.908       .  S
O1439      C1445   1.286       .  A
O1440      C1445   1.298       .  A
O1442      C1444   1.264       .  A
O1443     Ni1454   1.920       .  S
C1444      O1450   1.272       .  A
C1444      C1660   1.487       .  S
C1445      C1634   1.502   1_554  S
H1446      O1447   0.958       .  S
O1447     Ni1455   1.861       .  S
O1447     Ni1449   1.862       .  S
O1447     Ni1454   1.882       .  S
O1448     Ni1449   1.925       .  S
Ni1449     O1453   1.852       .  S
Ni1449     O1451   1.921       .  S
O1450     Ni1455   1.973       .  S
C1452      O1453   1.249       .  A
C1452      C1523   1.502       .  S
O1457     Ni1463   2.031       .  S
O1457      C1478   1.289       .  A
O1458     Ni1481   1.956       .  S
O1458      C1467   1.280       .  A
O1459     Ni1463   1.897       .  S
O1459     Ni1481   1.911       .  S
O1459     Ni1475   1.892       .  S
O1459      H1482   0.966       .  S
C1460      O1477   1.276       .  A
C1460      O1469   1.279       .  A
C1460      C1497   1.507       .  S
O1461     Ni1480   1.886       .  S
O1461      C1467   1.269       .  A
O1462     Ni1480   1.932       .  S
O1462      C1464   1.272       .  A
Ni1463     O1466   1.995       .  S
Ni1463     O1468   1.886       .  S
C1464      O1474   1.266       .  A
O1465     Ni1481   1.908       .  S
O1465      C1471   1.286       .  A
O1466      C1471   1.298       .  A
O1468      C1470   1.264       .  A
O1469     Ni1480   1.920       .  S
C1470      O1476   1.272       .  A
C1470      C1556   1.487       .  S
C1471      C1530   1.502       .  S
H1472      O1473   0.958       .  S
O1473     Ni1481   1.861       .  S
O1473     Ni1475   1.862       .  S
O1473     Ni1480   1.882       .  S
O1474     Ni1475   1.925       .  S
Ni1475     O1479   1.852       .  S
Ni1475     O1477   1.921       .  S
O1476     Ni1481   1.973       .  S
C1478      O1479   1.248       .  A
C1478      C1627   1.502       .  S
O1483     Ni1489   1.886       .  S
O1483      C1504   1.269       .  A
O1484     Ni1507   1.852       .  S
O1485     Ni1489   1.882       .  S
O1485     Ni1507   1.862       .  S
O1485     Ni1501   1.861       .  S
O1485      H1508   0.958       .  S
C1486      O1503   1.286   1_554  A
C1486      O1495   1.298   1_554  A
O1487     Ni1506   2.031       .  S
O1487      C1493   1.289       .  A
O1488      C1490   1.264       .  A
Ni1489     O1492   1.920       .  S
Ni1489     O1494   1.932       .  S
C1490      O1500   1.272       .  A
O1491     Ni1507   1.921       .  S
O1491      C1497   1.276       .  A
O1492      C1497   1.279       .  A
O1494      C1496   1.272       .  A
C1496      O1502   1.266       .  A
C1496      C1600   1.488       .  S
H1498      O1499   0.966       .  S
O1499     Ni1507   1.892       .  S
O1499     Ni1501   1.911       .  S
O1500     Ni1501   1.973       .  S
Ni1501     O1505   1.956       .  S
Ni1501     O1503   1.908       .  S
O1502     Ni1507   1.925       .  S
C1504      O1505   1.280       .  A
C1504      C1626   1.487       .  S
O1509     Ni1515   2.031       .  S
O1509      C1530   1.289       .  A
O1510     Ni1533   1.956       .  S
O1510      C1519   1.280       .  A
O1511     Ni1515   1.897       .  S
O1511     Ni1533   1.911       .  S
O1511     Ni1527   1.892       .  S
O1511      H1534   0.966       .  S
C1512      O1529   1.276       .  A
C1512      O1521   1.279       .  A
C1512      C1549   1.507       .  S
O1513     Ni1532   1.886       .  S
O1513      C1519   1.269       .  A
O1514     Ni1532   1.932       .  S
O1514      C1516   1.272       .  A
Ni1515     O1518   1.995       .  S
Ni1515     O1520   1.886       .  S
C1516      O1526   1.266       .  A
O1517     Ni1533   1.908       .  S
O1517      C1523   1.286       .  A
O1518      C1523   1.298       .  A
O1520      C1522   1.264       .  A
O1521     Ni1532   1.920       .  S
C1522      O1528   1.272       .  A
H1524      O1525   0.958       .  S
O1525     Ni1533   1.861       .  S
O1525     Ni1527   1.862       .  S
O1525     Ni1532   1.882       .  S
O1526     Ni1527   1.925       .  S
Ni1527     O1531   1.852       .  S
Ni1527     O1529   1.920       .  S
O1528     Ni1533   1.973       .  S
C1530      O1531   1.248       .  A
O1535     Ni1541   1.886       .  S
O1535      C1556   1.269       .  A
O1536     Ni1559   1.853       .  S
O1536      C1545   1.249       .  A
O1537     Ni1541   1.883       .  S
O1537     Ni1559   1.862       .  S
O1537     Ni1553   1.861       .  S
O1537      H1560   0.958       .  S
C1538      O1555   1.286       .  A
C1538      O1547   1.298       .  A
C1538      C1597   1.503       .  S
O1539     Ni1558   2.031       .  S
O1539      C1545   1.289       .  A
O1540     Ni1558   1.886       .  S
O1540      C1542   1.264       .  A
Ni1541     O1544   1.920       .  S
Ni1541     O1546   1.933       .  S
C1542      O1552   1.272       .  A
C1542      C1571   1.487       .  S
O1543     Ni1559   1.920       .  S
O1543      C1549   1.276       .  A
O1544      C1549   1.279       .  A
O1546      C1548   1.272       .  A
O1547     Ni1558   1.995       .  S
C1548      O1554   1.266       .  A
H1550      O1551   0.966       .  S
O1551     Ni1559   1.892       .  S
O1551     Ni1553   1.912       .  S
O1551     Ni1558   1.897       .  S
O1552     Ni1553   1.973       .  S
Ni1553     O1557   1.956       .  S
Ni1553     O1555   1.908       .  S
O1554     Ni1559   1.925       .  S
C1556      O1557   1.281       .  A
O1561     Ni1567   2.032       .  S
O1561      C1582   1.289       .  A
O1562     Ni1585   1.957       .  S
O1562      C1571   1.280       .  A
O1563     Ni1585   1.912       .  S
O1563     Ni1579   1.892       .  S
O1563      H1586   0.966       .  S
C1564      O1581   1.276       .  A
C1564      O1573   1.279       .  A
C1564      C1601   1.507       .  S
O1565     Ni1584   1.886       .  S
O1565      C1571   1.269       .  A
O1566     Ni1584   1.933       .  S
O1566      C1568   1.272       .  A
C1568      O1578   1.266       .  A
O1569     Ni1585   1.908       .  S
O1569      C1575   1.286       .  A
O1570      C1575   1.298       .  A
O1572      C1574   1.264       .  A
O1573     Ni1584   1.920       .  S
C1574      O1580   1.272       .  A
H1576      O1577   0.958       .  S
O1577     Ni1585   1.861       .  S
O1577     Ni1579   1.862       .  S
O1577     Ni1584   1.883       .  S
O1578     Ni1579   1.925       .  S
Ni1579     O1583   1.853       .  S
Ni1579     O1581   1.920       .  S
O1580     Ni1585   1.973       .  S
O1587     Ni1593   1.886       .  S
O1587      C1608   1.269       .  A
O1588     Ni1611   1.853       .  S
O1588      C1597   1.249       .  A
O1589     Ni1593   1.883       .  S
O1589     Ni1611   1.862       .  S
O1589     Ni1605   1.861       .  S
O1589      H1612   0.958       .  S
C1590      O1607   1.286   1_554  A
C1590      O1599   1.298   1_554  A
C1590      C1649   1.502       .  S
O1591     Ni1610   2.032       .  S
O1591      C1597   1.289       .  A
O1592     Ni1610   1.886       .  S
O1592      C1594   1.264       .  A
Ni1593     O1596   1.920       .  S
Ni1593     O1598   1.933       .  S
C1594      O1604   1.272       .  A
C1594      C1623   1.487       .  S
O1595     Ni1611   1.920       .  S
O1595      C1601   1.276       .  A
O1596      C1601   1.279       .  A
O1598      C1600   1.272       .  A
O1599     Ni1610   1.995       .  S
C1600      O1606   1.266       .  A
H1602      O1603   0.966       .  S
O1603     Ni1611   1.892       .  S
O1603     Ni1605   1.912       .  S
O1603     Ni1610   1.897       .  S
O1604     Ni1605   1.973       .  S
Ni1605     O1609   1.957       .  S
Ni1605     O1607   1.908       .  S
O1606     Ni1611   1.925       .  S
C1608      O1609   1.280       .  A
O1613     Ni1619   2.031       .  S
O1613      C1634   1.289       .  A
O1614     Ni1637   1.957   1_455  S
O1615     Ni1619   1.897       .  S
O1615     Ni1637   1.912       .  S
O1615     Ni1631   1.892       .  S
O1615      H1638   0.966       .  S
C1616      O1633   1.276       .  A
O1617     Ni1636   1.886       .  S
O1617      C1623   1.269       .  A
O1618     Ni1636   1.932       .  S
Ni1619     O1622   1.995       .  S
Ni1619     O1624   1.886       .  S
C1620      O1630   1.266       .  A
O1621     Ni1637   1.908       .  S
O1621      C1627   1.286       .  A
O1622      C1627   1.298       .  A
O1624      C1626   1.264       .  A
O1625     Ni1636   1.920   1_554  S
C1626      O1632   1.272       .  A
H1628      O1629   0.958       .  S
O1629     Ni1637   1.861       .  S
O1629     Ni1631   1.862       .  S
O1630     Ni1631   1.925       .  S
Ni1631     O1635   1.852       .  S
Ni1631     O1633   1.920   1_556  S
O1632     Ni1637   1.973       .  S
C1634      O1635   1.249       .  A
O1639     Ni1645   1.886       .  S
O1639      C1660   1.269       .  A
O1640     Ni1663   1.853       .  S
O1640      C1649   1.249       .  A
O1641     Ni1663   1.862       .  S
O1641     Ni1657   1.861       .  S
O1641      H1664   0.958       .  S
C1642      O1659   1.286       .  A
C1642      O1651   1.298       .  A
O1643     Ni1662   2.032       .  S
O1643      C1649   1.289       .  A
O1644     Ni1662   1.886       .  S
O1644      C1646   1.264       .  A
Ni1645     O1648   1.920       .  S
Ni1645     O1650   1.933       .  S
C1646      O1656   1.272       .  A
O1647     Ni1663   1.920       .  S
O1647      C1653   1.276       .  A
O1651     Ni1662   1.995       .  S
C1652      O1658   1.266       .  A
H1654      O1655   0.966       .  S
O1655     Ni1663   1.892       .  S
O1655     Ni1657   1.912       .  S
O1655     Ni1662   1.897       .  S
O1656     Ni1657   1.973       .  S
Ni1657     O1661   1.956       .  S
Ni1657     O1659   1.908       .  S
O1658     Ni1663   1.925       .  S
