geometry optimzed in LAMMPS
_audit_creation_date              2020-12-01 
_audit_creation_method            'lammps2cif' 
_symmetry_space_group_name_H-M    'P1' 
_symmetry_Int_Tables_number       1 
_symmetry_cell_setting            triclinic 
loop_ 
_symmetry_equiv_pos_as_xyz 
  x,y,z 
_cell_length_a                    62.97447404 
_cell_length_b                    63.22772679089843 
_cell_length_c                    39.254740005856675 
_cell_angle_alpha                 90.04115639421896 
_cell_angle_beta                  89.96192932315557 
_cell_angle_gamma                 120.00525678271416 
loop_ 
_atom_site_label 
_atom_site_type_symbol 
_atom_site_fract_x 
_atom_site_fract_y 
_atom_site_fract_z 
_atom_site_charge 
Zr1        Zr  0.83891625  0.23943454  0.28650302     2.17500
O2          O  0.83320687  0.20037683  0.30657580    -0.52100
O3          O  0.79476530  0.21604325  0.29905381    -0.75300
O4          O  0.85265419  0.23436153  0.34238955    -0.82100
O5          O  0.83142222  0.22820525  0.19033693    -0.83800
O6          O  0.87012717  0.27092646  0.36992895    -0.79500
O7          O  0.83613120  0.21237616  0.23971325    -0.91100
O8          O  0.77789632  0.24026984  0.29594482    -0.77100
O9          O  0.83005321  0.26724806  0.31582663    -0.86600
O10         O  0.81768180  0.25065653  0.24711912    -0.86200
O11         O  0.87823347  0.27359231  0.30265723    -0.73000
O12         O  0.86738407  0.25810858  0.24005972    -0.85100
Zr13       Zr  0.87711301  0.33239618  0.24520034     2.26400
Zr14       Zr  0.86893216  0.30137591  0.33208795     2.06300
Zr15       Zr  0.84593885  0.27036365  0.20179717     2.10000
Zr16       Zr  0.80991979  0.27932396  0.27525198     1.78800
O17         O  0.86297798  0.26132951  0.15187875    -0.93900
O18         O  0.79317421  0.28730082  0.32651197    -0.41700
O19         O  0.83745979  0.29939828  0.22845719    -0.78400
O20         O  0.84835283  0.31333943  0.29140967    -0.97100
O21         O  0.89729448  0.32071175  0.28613045    -0.90400
O22         O  0.88530301  0.30401194  0.21672947    -0.93200
C23         C  0.77648522  0.21970643  0.30186979     1.00500
C24         C  0.83166806  0.21126533  0.20759613     1.13500
C25         C  0.86404809  0.24820390  0.36784218     1.04300
O26         O  0.84259657  0.29943606  0.37886018    -0.95400
O27         O  0.87967081  0.34416172  0.34224993    -0.91100
O28         O  0.88410044  0.36173952  0.29013447    -0.84300
C29         C  0.88367730  0.36230590  0.32288279     1.10900
O30         O  0.91972128  0.26323277  0.25634793    -0.97300
Zr31       Zr  0.90586404  0.29293835  0.25691034     1.88900
O32         O  0.92148208  0.35894141  0.24078998    -0.74000
O33         O  0.90520805  0.32120448  0.36820516    -0.53300
O34         O  0.93396950  0.29639390  0.30208774    -0.97900
O35         O  0.92819317  0.29776830  0.20400068    -0.55100
O36         O  0.93787731  0.33544535  0.25560227    -0.74500
C37         C  0.93966512  0.35604630  0.24843954     0.97800
O38         O  0.87256854  0.36738992  0.23055288    -0.63300
O39         O  0.80673890  0.25774665  0.17410431    -0.58100
O40         O  0.87555130  0.33753602  0.18303653    -0.94800
O41         O  0.85642697  0.30000552  0.15800406    -0.93200
O42         O  0.78002992  0.26576795  0.22921785    -0.93600
O43         O  0.79471816  0.30765084  0.26745561    -0.92400
C44         C  0.86734365  0.32324720  0.15695376     1.16700
H45         H  0.80284885  0.23671545  0.23881752     0.32600
H46         H  0.84401225  0.32473476  0.30148996     0.43500
H47         H  0.89565106  0.31123254  0.19689975     0.37000
H48         H  0.88765670  0.26859440  0.31628445     0.33500
H49         H  0.79210557  0.27514830  0.34333635     0.03700
H50         H  0.89886819  0.31709856  0.39179855     0.31200
H51         H  0.93957389  0.31261139  0.31247298     0.37100
H52         H  0.76557021  0.26585086  0.23893765     0.31600
H53         H  0.80837903  0.27278395  0.16381163     0.30500
H54         H  0.88057522  0.26823743  0.15729464     0.32100
H55         H  0.92169587  0.28103992  0.19493363     0.31100
H56         H  0.80532363  0.31897629  0.24944569     0.35100
H57         H  0.88744149  0.37840634  0.21729104     0.27800
H58         H  0.81727449  0.18779243  0.29706658     0.32100
H59         H  0.90465019  0.24738854  0.25233846     0.34900
H60         H  0.80633473  0.24773728  0.15443976     0.27500
H61         H  0.85886398  0.36135724  0.21407226     0.40400
H62         H  0.82960002  0.28206444  0.38017573     0.30500
H63         H  0.80644398  0.30311010  0.33527780     0.38100
H64         H  0.94516777  0.30292945  0.21123309     0.29900
H65         H  0.91386632  0.31195373  0.36440618     0.30000
H66         H  0.84562375  0.19789232  0.29458135     0.30200
Zr67       Zr  0.89494964  0.18946895  0.55563861     2.17500
O68         O  0.85389533  0.18334572  0.54671060    -0.52100
O69         O  0.87007659  0.14626616  0.53891674    -0.75300
O70         O  0.89076187  0.20394969  0.49992006    -0.82100
O71         O  0.88623484  0.18751879  0.65304994    -0.83800
O72         O  0.92682493  0.21974321  0.47090825    -0.79500
O73         O  0.86917014  0.18915617  0.60280166    -0.91100
O74         O  0.89322367  0.12808520  0.54059101    -0.77100
O75         O  0.92227455  0.18073696  0.52449355    -0.86600
O76         O  0.90545555  0.16674355  0.59341309    -0.86200
O77         O  0.92941138  0.22876740  0.53997084    -0.73000
O78         O  0.91461787  0.21624431  0.60311280    -0.85100
Zr79       Zr  0.98816809  0.22478354  0.59596786     2.26400
Zr80       Zr  0.95717629  0.21964584  0.50997311     2.06300
Zr81       Zr  0.92607254  0.19360306  0.63992466     2.10000
Zr82       Zr  0.93314068  0.15858200  0.56303139     1.78800
O83         O  0.92642451  0.21388913  0.69286254    -0.93900
O84         O  0.94136917  0.14327288  0.51047367    -0.41700
O85         O  0.95411937  0.18506283  0.61059564    -0.78400
O86         O  0.96782256  0.19709350  0.54880116    -0.97100
O87         O  0.97692767  0.24639836  0.55696786    -0.90400
O88         O  0.95999700  0.23274932  0.62565588    -0.93200
C89         C  0.87293978  0.12765257  0.53464922     1.00500
C90         C  0.86906626  0.18728909  0.63545451     1.13500
C91         C  0.90424035  0.21426511  0.47372193     1.04300
O92         O  0.95832998  0.20019785  0.45703160    -0.95400
O93         O  0.99918874  0.22764428  0.49926383    -0.91100
O94         O  0.01718405  0.23054338  0.55083210    -0.84300
C95         C  0.01724341  0.23036068  0.51801758     1.10900
O96         O  0.91768785  0.26606292  0.59164361    -0.97300
Zr97       Zr  0.94926853  0.25470483  0.58737521     1.88900
O98         O  0.01561405  0.26966021  0.59899491    -0.74000
O99         O  0.97751983  0.26067848  0.48597296    -0.53300
O100        O  0.95296545  0.28568992  0.54708202    -0.97900
O101        O  0.95522290  0.27580257  0.64158413    -0.55100
O102        O  0.99175336  0.28657340  0.58902217    -0.74500
C103        C  0.01257508  0.28817202  0.59409226     0.97800
O104        O  0.02000928  0.21516385  0.61060185    -0.63300
O105        O  0.90473400  0.15308326  0.66558286    -0.58100
O106        O  0.99256813  0.22390466  0.65881019    -0.94800
O107        O  0.95564506  0.19502561  0.67968494    -0.93200
O108        O  0.91743293  0.12514108  0.60378168    -0.93600
O109        O  0.96244200  0.14475204  0.57343133    -0.92400
C110        C  0.97828483  0.21084449  0.68331895     1.16700
H111        H  0.89109295  0.15193442  0.60099487     0.32600
H112        H  0.97863066  0.19240302  0.53816734     0.43500
H113        H  0.96720561  0.24250492  0.64561007     0.37000
H114        H  0.92475175  0.23848807  0.52643631     0.33500
H115        H  0.95945269  0.15167050  0.50835313     0.25300
H116        H  0.98325174  0.25887973  0.46324622     0.31200
H117        H  0.96444145  0.30150908  0.55792945     0.37100
H118        H  0.91633399  0.11119459  0.59080183     0.31600
H119        H  0.91728155  0.14807658  0.66740528     0.30500
H120        H  0.91704359  0.20049538  0.70925924     0.32100
H121        H  0.93942260  0.26642345  0.65376849     0.31100
H122        H  0.97143682  0.15362640  0.59416994     0.35100
H123        H  0.03012482  0.22705059  0.62840654     0.27800
H124        H  0.84799054  0.17423740  0.52502834     0.32100
H125        H  0.90435446  0.25431490  0.57663046     0.34900
H126        H  0.90159842  0.15591276  0.68940161     0.27500
H127        H  0.01128615  0.19922205  0.62244625     0.40400
H128        H  0.94800876  0.18248303  0.46152090     0.30500
H129        H  0.93632570  0.12601842  0.51529958     0.38100
H130        H  0.95625063  0.29150736  0.63564914     0.29900
H131        H  0.96420743  0.26426891  0.48115912     0.30000
H132        H  0.85617943  0.19972047  0.54188638     0.30200
Zr133      Zr  0.93323577  0.43582846  0.88723135     2.17500
O134        O  0.96616856  0.47750278  0.87592718    -0.52100
O135        O  0.91263027  0.45902668  0.87306079    -0.75300
O136        O  0.95258303  0.44033004  0.83179041    -0.82100
O137        O  0.94070409  0.44558004  0.98391516    -0.83800
O138        O  0.93484698  0.40357294  0.80465815    -0.79500
O139        O  0.95800218  0.46310339  0.93334761    -0.91100
O140        O  0.87147467  0.43487337  0.87575735    -0.77100
O141        O  0.89716989  0.40742852  0.85694864    -0.86600
O142        O  0.90022819  0.42426559  0.92592545    -0.86200
O143        O  0.93947143  0.40212316  0.87225813    -0.73000
O144        O  0.94260017  0.41762138  0.93445711    -0.85100
Zr145      Zr  0.87882361  0.34313472  0.92956562     2.26400
Zr146      Zr  0.90258289  0.37333244  0.84259970     2.06300
Zr147      Zr  0.90858353  0.40504497  0.97216531     2.10000
Zr148      Zr  0.86435976  0.39553038  0.89647755     1.78800
O149        O  0.93068843  0.40841947  0.02469521    -0.93900
O150        O  0.84072668  0.38665154  0.84395504    -0.41700
O151        O  0.87172572  0.37609177  0.94418213    -0.78400
O152        O  0.86927309  0.36144789  0.88208042    -0.97100
O153        O  0.91147753  0.35512876  0.88983797    -0.90400
O154        O  0.91509978  0.37197597  0.95821146    -0.93200
C155        C  0.89075944  0.45550571  0.86984437     1.00500
C156        C  0.95662712  0.46321275  0.96601947     1.13500
C157        C  0.95110962  0.42650104  0.80686147     1.04300
O158        O  0.87913152  0.37571513  0.79496892    -0.95400
O159        O  0.87208194  0.32908070  0.83493738    -0.91100
O160        O  0.85523981  0.31305927  0.88642605    -0.84300
C161        C  0.85648072  0.31130805  0.85399284     1.10900
O162        O  0.99102772  0.41339586  0.92273109    -0.97300
Zr163      Zr  0.94750987  0.38351945  0.91911826     1.88900
O164        O  0.89674381  0.31624627  0.92940908    -0.74000
O165        O  0.91871724  0.35240657  0.80838107    -0.53300
O166        O  0.97256426  0.38006415  0.87442337    -0.97900
O167        O  0.96650138  0.38172474  0.97235984    -0.55100
O168        O  0.93765602  0.34137891  0.92171693    -0.74500
C169        C  0.91868457  0.32015895  0.92489370     0.97800
O170        O  0.83936943  0.31295716  0.95328186    -0.63300
O171        O  0.88665356  0.42337236  0.99869089    -0.58100
O172        O  0.87464358  0.33809054  0.99187303    -0.94800
O173        O  0.88506188  0.37519090  0.01450110    -0.93200
O174        O  0.84603062  0.40835296  0.94070815    -0.93600
O175        O  0.82079543  0.36625735  0.90281092    -0.92400
C176        C  0.87719159  0.35233236  0.01702887     1.16700
H177        H  0.89914857  0.43818148  0.93375355     0.32600
H178        H  0.85392344  0.34988947  0.87162651     0.43500
H179        H  0.91828759  0.36522715  0.97825822     0.37000
H180        H  0.95412623  0.40718635  0.85916180     0.33500
H181        H  0.85117243  0.40020424  0.82830755     0.25300
H182        H  0.91472215  0.35415391  0.78453738     0.31200
H183        H  0.97700365  0.36808719  0.88311674     0.37100
H184        H  0.83174974  0.40810603  0.92977451     0.31600
H185        H  0.87049661  0.40938154  0.00505221     0.30500
H186        H  0.92640472  0.41795760  0.04044758     0.32100
H187        H  0.95648831  0.36471857  0.98058320     0.31100
H188        H  0.82018418  0.35348872  0.91804264     0.35100
H189        H  0.82701383  0.31444843  0.93951840     0.27800
H190        H  0.96361030  0.48169096  0.85260808     0.32100
H191        H  0.99332318  0.42652445  0.90686478     0.34900
H192        H  0.89511493  0.42982756  0.02069920     0.27500
H193        H  0.83728656  0.29684545  0.94714326     0.40400
H194        H  0.88446196  0.36989485  0.77508576     0.30500
H195        H  0.84075811  0.37225935  0.83409033     0.38100
H196        H  0.96315878  0.39165550  0.98867941     0.29900
H197        H  0.93677296  0.36272532  0.80991967     0.30000
H198        H  0.98146461  0.47673935  0.87461378     0.30200
Zr199      Zr  0.04804349  0.49066210  0.62636642     2.17500
O200        O  0.01476381  0.49897690  0.63788673    -0.52100
O201        O  0.06950294  0.53390389  0.64283878    -0.75300
O202        O  0.02852010  0.47572940  0.68173184    -0.82100
O203        O  0.04257563  0.49787294  0.53043878    -0.83800
O204        O  0.04592093  0.45614262  0.70813301    -0.79500
O205        O  0.02342587  0.49415514  0.58099410    -0.91100
O206        O  0.10987599  0.55154955  0.63007186    -0.77100
O207        O  0.08443624  0.49812272  0.65543936    -0.86600
O208        O  0.08059899  0.51183660  0.58687042    -0.86200
O209        O  0.04128073  0.45051452  0.64011036    -0.73000
O210        O  0.03859912  0.46371206  0.57838805    -0.85100
Zr211      Zr  0.10228178  0.45270644  0.58096220     2.26400
Zr212      Zr  0.07810386  0.45830678  0.66939499     2.06300
Zr213      Zr  0.07194050  0.48504043  0.53969332     2.10000
Zr214      Zr  0.11683916  0.51849433  0.61484753     1.78800
O215        O  0.04581552  0.46707875  0.49000375    -0.93900
O216        O  0.14031244  0.53391322  0.66731685    -0.41700
O217        O  0.10897308  0.49249638  0.56639785    -0.78400
O218        O  0.11117806  0.47944583  0.62953089    -0.97100
O219        O  0.06980447  0.43205716  0.62117656    -0.90400
O220        O  0.06579317  0.44545480  0.55283065    -0.93200
C221        C  0.09113354  0.55263045  0.64023707     1.00500
C222        C  0.02578143  0.49785400  0.54867526     1.13500
C223        C  0.02985792  0.46315162  0.70644353     1.04300
O224        O  0.10190202  0.48466901  0.71636966    -0.95400
O225        O  0.10858345  0.44451233  0.67623812    -0.91100
O226        O  0.12453389  0.44422431  0.62424531    -0.84300
C227        C  0.12366473  0.44170199  0.65682465     1.10900
O228        O  0.99036133  0.41156687  0.58711597    -0.97300
Zr229      Zr  0.03367507  0.42455226  0.59237598     1.88900
O230        O  0.08488964  0.40825758  0.57878082    -0.74000
O231        O  0.06111347  0.42140977  0.70401813    -0.53300
O232        O  0.00771801  0.39610170  0.63629421    -0.97900
O233        O  0.01315602  0.40507640  0.53926995    -0.55100
O234        O  0.04421114  0.39238543  0.58956782    -0.74500
C235        C  0.06321829  0.39023564  0.58463521     0.97800
O236        O  0.14461968  0.46672523  0.56446747    -0.63300
O237        O  0.09717140  0.52401401  0.51099648    -0.58100
O238        O  0.10643155  0.45216660  0.51803928    -0.94800
O239        O  0.09319805  0.47682702  0.49568752    -0.93200
O240        O  0.13820022  0.55108593  0.57340536    -0.93600
O241        O  0.15922161  0.52891288  0.60534822    -0.92400
C242        C  0.10260633  0.46310475  0.49292020     1.16700
H243        H  0.08156025  0.52695178  0.57953626     0.32600
H244        H  0.12656132  0.48302225  0.64000471     0.43500
H245        H  0.06249897  0.43545628  0.53259620     0.37000
H246        H  0.02664046  0.44103588  0.65327328     0.33500
H247        H  0.12803768  0.53167867  0.68483102     0.25300
H248        H  0.06349231  0.42719020  0.72790806     0.31200
H249        H  0.01814210  0.39048582  0.64736838     0.37100
H250        H  0.14856253  0.56586153  0.58717625     0.31600
H251        H  0.08913207  0.52203514  0.48862386     0.30500
H252        H  0.04466146  0.45101027  0.48684709     0.32100
H253        H  0.02348992  0.39919202  0.52857811     0.31100
H254        H  0.15810627  0.51366151  0.59675964     0.35100
H255        H  0.14394188  0.45370350  0.54969481     0.27800
H256        H  0.01869542  0.50778563  0.65991433     0.32100
H257        H  0.98819719  0.42317324  0.60159134     0.34900
H258        H  0.09423049  0.53601074  0.52320537     0.27500
H259        H  0.14911514  0.48070690  0.54898420     0.40400
H260        H  0.09538599  0.47427688  0.73689681     0.30500
H261        H  0.14533810  0.52186440  0.67343116     0.38100
H262        H  0.01511433  0.41864358  0.52455068     0.29900
H263        H  0.04316924  0.41318466  0.70033974     0.30000
H264        H  0.99996913  0.48298412  0.64233525     0.30200
Zr265      Zr  0.08698414  0.28393303  0.95435526     2.17500
O266        O  0.12978869  0.31504639  0.96360925    -0.52100
O267        O  0.10855790  0.26284579  0.97188194    -0.75300
O268        O  0.09241228  0.30453528  0.00930086    -0.82100
O269        O  0.09849527  0.28648976  0.85798018    -0.83800
O270        O  0.05528033  0.28880234  0.03519480    -0.79500
O271        O  0.11431603  0.30715639  0.90737265    -0.91100
O272        O  0.08461862  0.22184157  0.96604373    -0.77100
O273        O  0.05799393  0.24878860  0.98559485    -0.86600
O274        O  0.07482743  0.24989106  0.91734487    -0.86200
O275        O  0.05412073  0.29169078  0.96787408    -0.73000
O276        O  0.06967984  0.29252129  0.90545414    -0.85100
Zr277      Zr  0.99430898  0.23078933  0.91281371     2.26400
Zr278      Zr  0.02482595  0.25593850  0.99898865     2.06300
Zr279      Zr  0.05638275  0.25755739  0.86964727     2.10000
Zr280      Zr  0.04502969  0.21502715  0.94744437     1.78800
O281        O  0.06524854  0.27851855  0.81502306    -0.93900
O282        O  0.03777964  0.19212199  0.00023121    -0.41700
O283        O  0.02627207  0.22184574  0.89846672    -0.78400
O284        O  0.01216920  0.22192263  0.96127165    -0.97100
O285        O  0.00723553  0.26451435  0.95063867    -0.90400
O286        O  0.02387421  0.26559066  0.88220761    -0.93200
C287        C  0.10485241  0.24102087  0.97375583     1.00500
C288        C  0.11551989  0.30366370  0.87533845     1.13500
C289        C  0.07854558  0.30399251  0.03377594     1.04300
O290        O  0.02740003  0.23210204  0.04582759    -0.95400
O291        O  0.98056287  0.22607698  0.00816345    -0.91100
O292        O  0.96450258  0.20903317  0.95696628    -0.84300
C293        C  0.96266894  0.21055187  0.98930923     1.10900
O294        O  0.06954361  0.34129951  0.91390526    -0.97300
Zr295      Zr  0.03640307  0.29916673  0.91933839     1.88900
O296        O  0.96903170  0.25040008  0.91091444    -0.74000
O297        O  0.00657878  0.27374098  0.03558698    -0.53300
O298        O  0.03569040  0.32809885  0.95989102    -0.97900
O299        O  0.03530298  0.31448111  0.86272809    -0.55100
O300        O  0.99465098  0.29135884  0.91588376    -0.74500
C301        C  0.97323290  0.27247385  0.91341484     0.97800
O302        O  0.96042127  0.19016056  0.89946126    -0.63300
O303        O  0.06969844  0.23002084  0.84767795    -0.58100
O304        O  0.98814364  0.22350571  0.85086039    -0.94800
O305        O  0.02571712  0.23674086  0.82707351    -0.93200
O306        O  0.05471267  0.19189009  0.90690819    -0.93600
O307        O  0.01162203  0.17285802  0.94463734    -0.92400
C308        C  0.00244063  0.22683831  0.82537277     1.16700
H309        H  0.08854754  0.24826736  0.91017825     0.32600
H310        H  0.00042037  0.20692627  0.97250251     0.43500
H311        H  0.01703151  0.26833944  0.86183182     0.37000
H312        H  0.05977125  0.30677983  0.98018939     0.33500
H313        H  0.05179886  0.20270078  0.01516560     0.25300
H314        H  0.99451815  0.27507516  0.02093831     0.31200
H315        H  0.01990464  0.32759296  0.95615910     0.37100
H316        H  0.05675178  0.18006458  0.92106206     0.31600
H317        H  0.05539336  0.21731205  0.83501371     0.30500
H318        H  0.05942083  0.29036011  0.81756243     0.32100
H319        H  0.05178968  0.32006716  0.85303982     0.31100
H320        H  0.00219817  0.17223073  0.92410103     0.35100
H321        H  0.94954454  0.19275568  0.88394258     0.27800
H322        H  0.13384923  0.31278095  0.98715339     0.32100
H323        H  0.08141300  0.34324488  0.93189026     0.34900
H324        H  0.08184736  0.23956704  0.82980213     0.27500
H325        H  0.96762479  0.18239965  0.88522761     0.40400
H326        H  0.04308358  0.24318384  0.05734397     0.30500
H327        H  0.02357894  0.19220885  0.01090535     0.38100
H328        H  0.03468849  0.32963320  0.86669908     0.29900
H329        H  0.99658242  0.26092951  0.05244340     0.30000
H330        H  0.13026065  0.33093461  0.96379263     0.30200
Zr331      Zr  0.14092970  0.39437677  0.21998285     2.17500
O332        O  0.14462348  0.35824363  0.20972975    -0.52100
O333        O  0.18431510  0.41378161  0.20446821    -0.75300
O334        O  0.12712546  0.37650685  0.16370637    -0.82100
O335        O  0.14785533  0.38953855  0.31615695    -0.83800
O336        O  0.11032709  0.39620997  0.13590725    -0.79500
O337        O  0.14342152  0.36963034  0.26623917    -0.91100
O338        O  0.20130548  0.45491009  0.20656260    -0.77100
O339        O  0.15069243  0.43141309  0.19090640    -0.86600
O340        O  0.16272649  0.42672802  0.25949010    -0.86200
O341        O  0.10184739  0.38999095  0.20379918    -0.73000
O342        O  0.11312968  0.38510718  0.26670085    -0.85100
Zr343      Zr  0.10443191  0.45045230  0.26235126     2.26400
Zr344      Zr  0.11209688  0.42747361  0.17510522     2.06300
Zr345      Zr  0.13463730  0.41835513  0.30513194     2.10000
Zr346      Zr  0.17114226  0.46345279  0.23154287     1.78800
O347        O  0.11139490  0.39064177  0.35125591    -0.93900
O348        O  0.18704759  0.49090989  0.18279296    -0.41700
O349        O  0.14364490  0.45573396  0.27825012    -0.78400
O350        O  0.13304921  0.46001546  0.21561857    -0.97100
O351        O  0.08423306  0.41851796  0.22163126    -0.90400
O352        O  0.09561223  0.41368419  0.29047243    -0.93200
C353        C  0.20239286  0.43557014  0.20025044     1.00500
C354        C  0.14737990  0.37233238  0.29853877     1.13500
C355        C  0.11617316  0.37940058  0.13811247     1.04300
O356        O  0.14104728  0.45237079  0.13101966    -0.95400
O357        O  0.09914700  0.45788924  0.16630291    -0.91100
O358        O  0.09986626  0.47458546  0.21782020    -0.84300
C359        C  0.09728881  0.47354415  0.18526455     1.10900
O360        O  0.06388682  0.33945293  0.24137857    -0.97300
Zr361      Zr  0.07498378  0.38190075  0.25049487     1.88900
O362        O  0.05953720  0.43262704  0.26160752    -0.74000
O363        O  0.07704164  0.41404110  0.13719376    -0.53300
O364        O  0.04066468  0.35928746  0.21177626    -0.97900
O365        O  0.05824880  0.36283971  0.30543165    -0.55100
O366        O  0.04275111  0.39149693  0.25664006    -0.74500
C367        C  0.04112267  0.41080329  0.25891112     0.97800
O368        O  0.11159950  0.48943913  0.28488458    -0.63300
O369        O  0.17189056  0.44168509  0.33858168    -0.58100
O370        O  0.10539933  0.45596541  0.32518823    -0.94800
O371        O  0.12825930  0.44085432  0.34838754    -0.93200
O372        O  0.20287128  0.48034328  0.27517115    -0.93600
O373        O  0.18559789  0.50623320  0.24468144    -0.92400
C374        C  0.11567696  0.45147630  0.35058626     1.16700
H375        H  0.17753674  0.42724425  0.26724796     0.32600
H376        H  0.13766364  0.47555642  0.20536902     0.43500
H377        H  0.08541203  0.41071727  0.31007786     0.37000
H378        H  0.09204314  0.37584906  0.18968379     0.33500
H379        H  0.20495045  0.50074460  0.18673369     0.25300
H380        H  0.08398691  0.41699339  0.11389658     0.31200
H381        H  0.04674408  0.36715458  0.18933414     0.37100
H382        H  0.21712512  0.49431038  0.26415523     0.31600
H383        H  0.18490535  0.44066493  0.32583464     0.30500
H384        H  0.12265703  0.39644562  0.37103696     0.32100
H385        H  0.06617722  0.35305222  0.31047934     0.31100
H386        H  0.17228349  0.50597533  0.25843428     0.35100
H387        H  0.12397329  0.50205419  0.26963086     0.27800
H388        H  0.15437378  0.36149258  0.18860820     0.32100
H389        H  0.04859186  0.32950341  0.25441847     0.34900
H390        H  0.17605849  0.45892797  0.33609301     0.27500
H391        H  0.09628820  0.48975286  0.28049401     0.40400
H392        H  0.13166101  0.44665761  0.10950003     0.30500
H393        H  0.18539479  0.48023787  0.16331732     0.38100
H394        H  0.04087379  0.35065972  0.30084545     0.29900
H395        H  0.06764370  0.39604487  0.13949753     0.30000
H396        H  0.12796104  0.34491764  0.20383208     0.30200
Zr397      Zr  0.13696569  0.76726870  0.70996153     2.17500
O398        O  0.13904303  0.80455966  0.68878367    -0.52100
O399        O  0.18048087  0.79222161  0.69573287    -0.75300
O400        O  0.14252791  0.79649719  0.75489169    -0.82100
O401        O  0.10877443  0.73225055  0.62645159    -0.83800
O402        O  0.13750915  0.77889831  0.80691653    -0.79500
O403        O  0.12006439  0.76780466  0.65436968    -0.91100
O404        O  0.19925710  0.77079181  0.70999742    -0.77100
O405        O  0.15516355  0.75741398  0.75565441    -0.86600
O406        O  0.15074354  0.74139688  0.68590209    -0.86200
O407        O  0.10485027  0.74770182  0.75181832    -0.73000
O408        O  0.10107788  0.73175186  0.68893873    -0.85100
Zr409      Zr  0.10011387  0.67522509  0.75473463     2.26400
Zr410      Zr  0.12320167  0.73659435  0.79659708     2.06300
Zr411      Zr  0.11471704  0.70563176  0.66590623     2.10000
Zr412      Zr  0.16825372  0.73116046  0.73228466     1.78800
O413        O  0.08467259  0.68149185  0.62245005    -0.93900
O414        O  0.19858171  0.75047707  0.77738445    -0.41700
O415        O  0.13230373  0.69502721  0.71249714    -0.78400
O416        O  0.13700038  0.71027202  0.77490828    -0.97100
O417        O  0.08668105  0.70157272  0.77673164    -0.90400
O418        O  0.08298068  0.68547025  0.70743092    -0.93200
C419        C  0.19955456  0.78990822  0.69825824     1.00500
C420        C  0.11134773  0.75375318  0.62825435     1.13500
C421        C  0.14272750  0.79708320  0.78760289     1.04300
O422        O  0.15768269  0.75089933  0.83569278    -0.95400
O423        O  0.11385340  0.70807935  0.84213895    -0.91100
O424        O  0.09847380  0.67050936  0.81791122    -0.84300
C425        C  0.10472284  0.68498260  0.84399384     1.10900
O426        O  0.05539811  0.74049917  0.71785421    -0.97300
Zr427      Zr  0.06950769  0.71174167  0.73003821     1.88900
O428        O  0.05548654  0.64724169  0.75451479    -0.74000
O429        O  0.09405958  0.73814209  0.83596662    -0.53300
O430        O  0.04444118  0.71323149  0.77618407    -0.97900
O431        O  0.04325258  0.70147314  0.68008732    -0.55100
O432        O  0.03803418  0.66961914  0.73818430    -0.74500
C433        C  0.03685950  0.64950344  0.74668036     0.97800
O434        O  0.10907127  0.64574037  0.78133813    -0.63300
O435        O  0.14678790  0.71422168  0.62422759    -0.58100
O436        O  0.09882742  0.64640377  0.71221644    -0.94800
O437        O  0.10716926  0.66388734  0.65950792    -0.93200
O438        O  0.18818332  0.72006196  0.68828565    -0.93600
O439        O  0.18488851  0.70598941  0.75251821    -0.92400
C440        C  0.10189739  0.64597278  0.67986513     1.16700
H441        H  0.16218171  0.74929452  0.66742453     0.32600
H442        H  0.14384279  0.70543915  0.79303838     0.43500
H443        H  0.06982573  0.67109767  0.69674540     0.37000
H444        H  0.09958100  0.75885126  0.76021743     0.33500
H445        H  0.19967214  0.76646870  0.78126497     0.25300
H446        H  0.10404449  0.74768218  0.85569847     0.31200
H447        H  0.02766510  0.70562371  0.76659133     0.37100
H448        H  0.20595649  0.73043022  0.69283770     0.31600
H449        H  0.15878394  0.71125440  0.63643054     0.30500
H450        H  0.09442915  0.68282390  0.60194197     0.32100
H451        H  0.02636417  0.69401859  0.68924191     0.31100
H452        H  0.17042498  0.68941865  0.75468698     0.35100
H453        H  0.09692425  0.62959340  0.77207847     0.27800
H454        H  0.15408194  0.81837106  0.69865062     0.32100
H455        H  0.07039595  0.75581777  0.71134923     0.34900
H456        H  0.13910882  0.70071207  0.60753364     0.27500
H457        H  0.12498451  0.64923093  0.77148122     0.40400
H458        H  0.15412958  0.75941974  0.85406208     0.30500
H459        H  0.19054463  0.74092711  0.79815168     0.38100
H460        H  0.04403015  0.68772044  0.66931738     0.29900
H461        H  0.08884506  0.74886220  0.82486122     0.30000
H462        H  0.12526120  0.80528547  0.69972792     0.30200
Zr463      Zr  0.08413357  0.82442971  0.44866085     2.17500
O464        O  0.12385839  0.83256521  0.47020206    -0.52100
O465        O  0.10539624  0.86780397  0.46398741    -0.75300
O466        O  0.11393299  0.83180171  0.40306095    -0.82100
O467        O  0.05074189  0.78786346  0.52929258    -0.83800
O468        O  0.09617696  0.83038410  0.35217042    -0.79500
O469        O  0.08668131  0.80385338  0.50006467    -0.91100
O470        O  0.08118893  0.88451502  0.45687984    -0.77100
O471        O  0.07167495  0.84461084  0.40915969    -0.86600
O472        O  0.05539556  0.83234406  0.47804681    -0.86200
O473        O  0.06662249  0.79587655  0.40213583    -0.73000
O474        O  0.05053357  0.78543776  0.46525135    -0.85100
Zr475      Zr  0.99083588  0.78300962  0.40595378     2.26400
Zr476      Zr  0.05354067  0.81629051  0.36345796     2.06300
Zr477      Zr  0.02159203  0.79325816  0.49379335     2.10000
Zr478      Zr  0.04185865  0.85105878  0.43732303     1.78800
O479        O  0.99778584  0.75685771  0.52824958    -0.93900
O480        O  0.05222689  0.88288773  0.39495674    -0.41700
O481        O  0.00833066  0.81182830  0.45223533    -0.78400
O482        O  0.02344433  0.82322591  0.39035196    -0.97100
O483        O  0.02058906  0.77650470  0.37817887    -0.90400
O484        O  0.00392610  0.76480274  0.44799126    -0.93200
C485        C  0.10167163  0.88603599  0.46493329     1.00500
C486        C  0.07297058  0.79226906  0.52564620     1.13500
C487        C  0.11441938  0.83369703  0.37038528     1.04300
O488        O  0.06953147  0.85479724  0.33291065    -0.95400
O489        O  0.02392180  0.81043092  0.32095757    -0.91100
O490        O  0.98676220  0.78337501  0.34355716    -0.84300
C491        C  0.00097368  0.79542636  0.31852492     1.10900
O492        O  0.06572712  0.74769338  0.42204961    -0.97300
Zr493      Zr  0.03277823  0.75725929  0.41930612     1.88900
O494        O  0.96565192  0.73796616  0.40461490    -0.74000
O495        O  0.05655231  0.79399648  0.31476445    -0.53300
O496        O  0.03384935  0.73690270  0.36714952    -0.97900
O497        O  0.02610084  0.72771097  0.46359863    -0.55100
O498        O  0.99178642  0.72322772  0.41070125    -0.74500
C499        C  0.97026169  0.72033114  0.40734973     0.97800
O500        O  0.95742876  0.78655664  0.38055954    -0.63300
O501        O  0.02641054  0.81980683  0.54173108    -0.58100
O502        O  0.96168471  0.77960685  0.44953301    -0.94800
O503        O  0.97922777  0.78498853  0.50186413    -0.93200
O504        O  0.02962492  0.86326818  0.48922478    -0.93600
O505        O  0.01086333  0.86282486  0.42856300    -0.92400
C506        C  0.96113721  0.78092821  0.48219659     1.16700
H507        H  0.06270335  0.84255394  0.49780715     0.32600
H508        H  0.01732177  0.83043211  0.37449941     0.43500
H509        H  0.99059683  0.75029546  0.45775461     0.37000
H510        H  0.07814970  0.79218047  0.39158502     0.33500
H511        H  0.05491492  0.89736248  0.40816712     0.25300
H512        H  0.06839099  0.80669269  0.29907302     0.31200
H513        H  0.02763545  0.74329963  0.34909106     0.37100
H514        H  0.03925892  0.88133953  0.48917835     0.31600
H515        H  0.01225501  0.82250816  0.54015672     0.30500
H516        H  0.99936380  0.76298229  0.55185859     0.32100
H517        H  0.02249337  0.71261855  0.45123280     0.31100
H518        H  0.99765328  0.84901154  0.41577474     0.35100
H519        H  0.94211243  0.77386211  0.39154287     0.27800
H520        H  0.13608379  0.84868046  0.46088397     0.32100
H521        H  0.07919765  0.76170757  0.43420762     0.34900
H522        H  0.02299153  0.80937480  0.56211398     0.27500
H523        H  0.95970160  0.80228627  0.38881815     0.40400
H524        H  0.08342778  0.86679853  0.34691172     0.30500
H525        H  0.06874368  0.88707941  0.38676464     0.38100
H526        H  0.01025012  0.72385476  0.47404227     0.29900
H527        H  0.06519934  0.78565615  0.32349358     0.30000
H528        H  0.12734943  0.82066906  0.45874060     0.30200
Zr529      Zr  0.83687188  0.61685883  0.78229573     2.17500
O530        O  0.83584699  0.65337532  0.80002404    -0.52100
O531        O  0.79451120  0.59840770  0.80178196    -0.75300
O532        O  0.82881639  0.63781722  0.73605799    -0.82100
O533        O  0.87072897  0.61808406  0.86378368    -0.83800
O534        O  0.82689755  0.61893781  0.68602031    -0.79500
O535        O  0.85650881  0.63926965  0.83409937    -0.91100
O536        O  0.77506391  0.55748382  0.79241465    -0.77100
O537        O  0.81444423  0.58428270  0.74333493    -0.86600
O538        O  0.82665616  0.58003269  0.81234917    -0.86200
O539        O  0.86446042  0.62520227  0.73517799    -0.73000
O540        O  0.87522033  0.62039724  0.79864454    -0.85100
Zr541      Zr  0.87215548  0.55963536  0.74144567     2.26400
Zr542      Zr  0.84204323  0.59152326  0.69730419     2.06300
Zr543      Zr  0.86497298  0.58343481  0.82834327     2.10000
Zr544      Zr  0.80571530  0.54777822  0.77216237     1.78800
O545        O  0.90235176  0.59702992  0.86128261    -0.93900
O546        O  0.77492973  0.53043426  0.72728174    -0.41700
O547        O  0.84393180  0.55096438  0.78801425    -0.78400
O548        O  0.83276695  0.55413593  0.72518603    -0.97100
O549        O  0.88117518  0.59601847  0.71170192    -0.90400
O550        O  0.89259532  0.59156021  0.78221298    -0.93200
C551        C  0.77537895  0.57704157  0.80203156     1.00500
C552        C  0.86710838  0.63633124  0.86011093     1.13500
C553        C  0.82528788  0.63501152  0.70376892     1.04300
O554        O  0.80495654  0.56962794  0.66322880    -0.95400
O555        O  0.84706001  0.56703967  0.65517963    -0.91100
O556        O  0.87251268  0.55539951  0.67898936    -0.84300
C557        C  0.86134712  0.55825797  0.65341657     1.10900
O558        O  0.91605846  0.67136647  0.75105551    -0.97300
Zr559      Zr  0.90233833  0.62786995  0.75182099     1.88900
O560        O  0.91671840  0.57626071  0.73945144    -0.74000
O561        O  0.86304314  0.61935338  0.65004856    -0.53300
O562        O  0.92011308  0.64511738  0.69655673    -0.97900
O563        O  0.93366244  0.65290744  0.79330335    -0.55100
O564        O  0.93423224  0.61738025  0.74550242    -0.74500
C565        C  0.93542351  0.59783266  0.74232008     0.97800
O566        O  0.86610162  0.51979932  0.72489430    -0.63300
O567        O  0.83993692  0.56463873  0.87869131    -0.58100
O568        O  0.87525525  0.53440174  0.78556998    -0.94800
O569        O  0.87281483  0.54919244  0.83745150    -0.93200
O570        O  0.79147085  0.52292607  0.82351039    -0.93600
O571        O  0.78704922  0.50396949  0.76284935    -0.92400
C572        C  0.87585835  0.53426349  0.81829580     1.16700
H573        H  0.81681474  0.57794952  0.83228094     0.32600
H574        H  0.82481557  0.54066550  0.70973861     0.43500
H575        H  0.90669135  0.59186262  0.79215843     0.37000
H576        H  0.86858289  0.64034548  0.72400147     0.33500
H577        H  0.75900089  0.52371075  0.73922588     0.25300
H578        H  0.87996346  0.63018827  0.65823067     0.31200
H579        H  0.93796594  0.65505372  0.70081696     0.37100
H580        H  0.77426974  0.51904283  0.82636311     0.31600
H581        H  0.82945167  0.54723167  0.87254525     0.30500
H582        H  0.89704844  0.58718092  0.88241490     0.32100
H583        H  0.94947824  0.65796017  0.78176653     0.31100
H584        H  0.80102261  0.50147026  0.75760938     0.35100
H585        H  0.85067842  0.51197971  0.71159690     0.27800
H586        H  0.81982609  0.65107105  0.79249311     0.32100
H587        H  0.90206551  0.67257422  0.76028241     0.34900
H588        H  0.85149977  0.56474121  0.89585633     0.27500
H589        H  0.87919109  0.52313487  0.70816148     0.40400
H590        H  0.80933187  0.57796514  0.64084049     0.30500
H591        H  0.77651086  0.54467568  0.71462850     0.38100
H592        H  0.93243515  0.64112267  0.81086742     0.29900
H593        H  0.86472437  0.60948406  0.63180309     0.30000
H594        H  0.84826080  0.66696840  0.78597317     0.30200
Zr595      Zr  0.89263872  0.72656758  0.04401864     2.17500
O596        O  0.85534810  0.69173640  0.02173953    -0.52100
O597        O  0.86832363  0.74570213  0.03080120    -0.75300
O598        O  0.86315771  0.70202799  0.08879142    -0.82100
O599        O  0.92764930  0.73180862  0.96098513    -0.83800
O600        O  0.88044157  0.71688010  0.14050064    -0.79500
O601        O  0.89129337  0.70892889  0.98825171    -0.91100
O602        O  0.89034396  0.78603212  0.04370750    -0.77100
O603        O  0.90286533  0.75655021  0.08717001    -0.86600
O604        O  0.91968549  0.76526121  0.01821876    -0.86200
O605        O  0.91142845  0.71510754  0.08809580    -0.73000
O606        O  0.92792793  0.72473357  0.02510990    -0.85100
Zr607      Zr  0.98532437  0.78091266  0.08946472     2.26400
Zr608      Zr  0.92257018  0.74609987  0.13039913     2.06300
Zr609      Zr  0.95538440  0.76373250  0.00062890     2.10000
Zr610      Zr  0.93094324  0.79481259  0.06230710     1.78800
O611        O  0.97918886  0.75453488  0.96065611    -0.93900
O612        O  0.91614855  0.81222473  0.10524832    -0.41700
O613        O  0.96654253  0.79291000  0.04564339    -0.78400
O614        O  0.95090764  0.78514308  0.10713256    -0.97100
O615        O  0.95725495  0.74248860  0.11372544    -0.90400
O616        O  0.97425707  0.75221981  0.04401282    -0.93200
C617        C  0.87074030  0.76702844  0.03326706     1.00500
C618        C  0.90560775  0.71352427  0.96254687     1.13500
C619        C  0.86255358  0.70242647  0.12155363     1.04300
O620        O  0.90657652  0.76774531  0.16338499    -0.95400
O621        O  0.95103397  0.76657738  0.17525868    -0.91100
O622        O  0.98927235  0.78415780  0.15223012    -0.84300
C623        C  0.97430560  0.77831940  0.17756971     1.10900
O624        O  0.91680510  0.67083783  0.05865852    -0.97300
Zr625      Zr  0.94676761  0.71369237  0.06887713     1.88900
O626        O  0.01228032  0.76294086  0.08963187    -0.74000
O627        O  0.91633008  0.71652931  0.17472746    -0.53300
O628        O  0.94323820  0.69006665  0.11971728    -0.97900
O629        O  0.95703933  0.69534192  0.02181329    -0.55100
O630        O  0.98830388  0.72243942  0.07819345    -0.74500
C631        C  0.00909773  0.74143784  0.08413983     0.97800
O632        O  0.01790380  0.82061126  0.10909892    -0.63300
O633        O  0.95043237  0.78877849  0.95769595    -0.58100
O634        O  0.01516141  0.80780343  0.04788730    -0.94800
O635        O  0.99766416  0.79798709  0.99524379    -0.93200
O636        O  0.94308967  0.81997594  0.01112943    -0.93600
O637        O  0.95676515  0.83791184  0.07631757    -0.92400
C638        C  0.01568272  0.81098330  0.01549906     1.16700
H639        H  0.91205394  0.76852964  0.99912080     0.32600
H640        H  0.95611752  0.79753493  0.12446158     0.43500
H641        H  0.98833770  0.75250914  0.03388168     0.37000
H642        H  0.90031200  0.69921984  0.09754882     0.33500
H643        H  0.91013514  0.82161385  0.09225139     0.25300
H644        H  0.93128806  0.71512773  0.17414909     0.31200
H645        H  0.94750372  0.67772825  0.11205080     0.37100
H646        H  0.96114401  0.82741294  0.00993394     0.31600
H647        H  0.96685957  0.80345476  0.95530373     0.30500
H648        H  0.97720543  0.76082667  0.93850196     0.32100
H649        H  0.96554356  0.68739849  0.03237579     0.31100
H650        H  0.97192432  0.83916751  0.08578210     0.35100
H651        H  0.00979776  0.82704909  0.12413060     0.27800
H652        H  0.84154844  0.69332906  0.03084804     0.32100
H653        H  0.90061262  0.66982811  0.05951467     0.34900
H654        H  0.94792143  0.77976207  0.93606919     0.27500
H655        H  0.02837185  0.81723543  0.12435234     0.40400
H656        H  0.92071183  0.78437642  0.16682934     0.30500
H657        H  0.90108116  0.79809307  0.11439896     0.38100
H658        H  0.97007279  0.70941319  0.00921097     0.29900
H659        H  0.91725828  0.72474167  0.19662175     0.30000
H660        H  0.85402989  0.67715964  0.03316475     0.30200
Zr661      Zr  0.04786987  0.57655436  0.12178431     2.17500
O662        O  0.01381830  0.53871958  0.14402644    -0.52100
O663        O  0.06783519  0.55355726  0.13728186    -0.75300
O664        O  0.02457880  0.54660531  0.07731319    -0.82100
O665        O  0.05006376  0.61194161  0.20293769    -0.83800
O666        O  0.04147216  0.56243246  0.02581170    -0.79500
O667        O  0.02805384  0.57560004  0.17575885    -0.91100
O668        O  0.10820485  0.57500891  0.12352032    -0.77100
O669        O  0.07842006  0.58644899  0.07934867    -0.86600
O670        O  0.08621774  0.60420712  0.14806855    -0.86200
O671        O  0.03634495  0.59401519  0.07611885    -0.73000
O672        O  0.04493785  0.61133808  0.13900217    -0.85100
Zr673      Zr  0.10107378  0.66816159  0.07443396     2.26400
Zr674      Zr  0.06803422  0.60525531  0.03458708     2.06300
Zr675      Zr  0.08347798  0.63939478  0.16420104     2.10000
Zr676      Zr  0.11634638  0.61526568  0.10449216     1.78800
O677        O  0.07470450  0.66189301  0.20690801    -0.93900
O678        O  0.13386562  0.60318696  0.05818955    -0.41700
O679        O  0.11329189  0.65047449  0.11970696    -0.78400
O680        O  0.10667108  0.63440481  0.05845298    -0.97100
O681        O  0.06312946  0.63917815  0.04992459    -0.90400
O682        O  0.07177005  0.65704862  0.11927964    -0.93200
C683        C  0.08919093  0.55583088  0.13495214     1.00500
C684        C  0.03186241  0.58983865  0.20127927     1.13500
C685        C  0.02613664  0.54514586  0.04483497     1.04300
O686        O  0.09362130  0.59481542  0.00002791    -0.95400
O687        O  0.08439323  0.63390511  0.98858762    -0.91100
O688        O  0.10147879  0.67200106  0.01146826    -0.84300
C689        C  0.09481069  0.65707769  0.98597466     1.10900
O690        O  0.99106271  0.59838314  0.10515889    -0.97300
Zr691      Zr  0.03365575  0.62879852  0.09378614     1.88900
O692        O  0.08245490  0.69443197  0.07298549    -0.74000
O693        O  0.03590416  0.59377712  0.99201445    -0.53300
O694        O  0.00995116  0.62330207  0.04216757    -0.97900
O695        O  0.01384776  0.63842869  0.13966036    -0.55100
O696        O  0.04153200  0.66958650  0.08157789    -0.74500
C697        C  0.06045406  0.69059777  0.07654550     0.97800
O698        O  0.14107832  0.69908584  0.05310469    -0.63300
O699        O  0.10966284  0.63511875  0.20605797    -0.58100
O700        O  0.12652368  0.69902623  0.11584052    -0.94800
O701        O  0.11578279  0.68264408  0.16904305    -0.93200
O702        O  0.14149865  0.62595378  0.15570054    -0.93600
O703        O  0.16027275  0.64079922  0.09466892    -0.92400
C704        C  0.12881484  0.70039086  0.14842987     1.16700
H705        H  0.08942256  0.59686019  0.16746770     0.32600
H706        H  0.11929820  0.63973522  0.04117174     0.43500
H707        H  0.07150953  0.67110806  0.12878232     0.37000
H708        H  0.02018106  0.58222591  0.06638405     0.33500
H709        H  0.14338111  0.59659552  0.06951678     0.25300
H710        H  0.02984912  0.60535100  0.99553134     0.31200
H711        H  0.99960491  0.60540033  0.03927964     0.37100
H712        H  0.14699497  0.64340981  0.15975763     0.31600
H713        H  0.11787499  0.65093520  0.21828012     0.30500
H714        H  0.08191013  0.65989907  0.22823752     0.32100
H715        H  0.00817840  0.64902561  0.12923034     0.31100
H716        H  0.16170103  0.65298993  0.07763930     0.35100
H717        H  0.14611101  0.69041901  0.03685427     0.27800
H718        H  0.01655581  0.52542324  0.13596691     0.32100
H719        H  0.99191493  0.58485857  0.11656121     0.34900
H720        H  0.09816029  0.62335129  0.22297655     0.27500
H721        H  0.13794097  0.71016342  0.03887891     0.40400
H722        H  0.08417069  0.58793088  0.97878395     0.30500
H723        H  0.11971705  0.58866947  0.04800400     0.38100
H724        H  0.02745356  0.64942574  0.15480844     0.29900
H725        H  0.04423316  0.59828852  0.96961764     0.30000
H726        H  0.99899130  0.53625687  0.13184012     0.30200
Zr727      Zr  0.93811694  0.51781126  0.38453310     2.17500
O728        O  0.97231431  0.51366812  0.36338029    -0.52100
O729        O  0.91916903  0.47452259  0.36903068    -0.75300
O730        O  0.96057348  0.51226068  0.43207061    -0.82100
O731        O  0.93627929  0.55128557  0.30261910    -0.83800
O732        O  0.93998319  0.50833211  0.48133453    -0.79500
O733        O  0.95956858  0.53934289  0.33216418    -0.91100
O734        O  0.87851706  0.45614239  0.38113759    -0.77100
O735        O  0.90723507  0.49774602  0.42657540    -0.86600
O736        O  0.89975500  0.50640751  0.35707261    -0.86200
O737        O  0.94849434  0.54720504  0.42982106    -0.73000
O738        O  0.93962608  0.55474206  0.36645353    -0.85100
Zr739      Zr  0.88160276  0.55469004  0.42643681     2.26400
Zr740      Zr  0.91605791  0.52722280  0.47033567     2.06300
Zr741      Zr  0.90151082  0.54359081  0.33913620     2.10000
Zr742      Zr  0.86937562  0.48729950  0.40041507     1.78800
O743        O  0.91180599  0.57649999  0.29869798    -0.93900
O744        O  0.85754556  0.46017225  0.44956341    -0.41700
O745        O  0.87075190  0.52431761  0.38212261    -0.78400
O746        O  0.87757402  0.51645792  0.44482311    -0.97100
O747        O  0.91942710  0.56513210  0.45350627    -0.90400
O748        O  0.91205705  0.57298496  0.38327938    -0.93200
C749        C  0.89759321  0.45563699  0.37078042     1.00500
C750        C  0.95554002  0.54927884  0.30608513     1.13500
C751        C  0.95705070  0.50799820  0.46432573     1.04300
O752        O  0.89515852  0.49363273  0.51052663    -0.95400
O753        O  0.89461121  0.53559930  0.51352316    -0.91100
O754        O  0.87593599  0.55458001  0.48861462    -0.84300
C755        C  0.88191645  0.54618877  0.51462490     1.10900
O756        O  0.99281187  0.59539739  0.40406789    -0.97300
Zr757      Zr  0.94990602  0.58384805  0.41087970     1.88900
O758        O  0.89996101  0.59981281  0.42620326    -0.74000
O759        O  0.94769033  0.55338610  0.51094297    -0.53300
O760        O  0.96963738  0.60312274  0.46439346    -0.97900
O761        O  0.97275871  0.61469661  0.36790489    -0.55100
O762        O  0.94097023  0.61641587  0.41743214    -0.74500
C763        C  0.92176269  0.61815435  0.42142408     0.97800
O764        O  0.84171177  0.54544623  0.44883452    -0.63300
O765        O  0.87775875  0.51296163  0.29617355    -0.58100
O766        O  0.85606552  0.55851634  0.38311731    -0.94800
O767        O  0.86923550  0.55464355  0.33085930    -0.93200
O768        O  0.83984669  0.46405069  0.35606064    -0.93600
O769        O  0.82602012  0.47141114  0.41206052    -0.92400
C770        C  0.85522380  0.55883227  0.35042821     1.16700
H771        H  0.89690370  0.49565943  0.33798063     0.32600
H772        H  0.86471523  0.50908646  0.46165029     0.43500
H773        H  0.91211701  0.58677787  0.37283210     0.37000
H774        H  0.96408599  0.55186423  0.44000244     0.33500
H775        H  0.84566177  0.44386061  0.44045154     0.25300
H776        H  0.94222207  0.54464279  0.53294710     0.31200
H777        H  0.97718866  0.59358922  0.47255775     0.37100
H778        H  0.84510692  0.47509303  0.33612514     0.31600
H779        H  0.86797630  0.51918205  0.28481874     0.30500
H780        H  0.90564776  0.56822671  0.27650175     0.32100
H781        H  0.95988331  0.61453843  0.35331377     0.31100
H782        H  0.82550131  0.47759523  0.43504332     0.35100
H783        H  0.83935686  0.55918713  0.44188553     0.27800
H784        H  0.96897580  0.49736818  0.37103544     0.32100
H785        H  0.99236333  0.58166837  0.39128323     0.34900
H786        H  0.88995754  0.51473023  0.27880174     0.27500
H787        H  0.82955881  0.53124825  0.43543543     0.40400
H788        H  0.87748579  0.48800228  0.50786149     0.30500
H789        H  0.87218992  0.45890381  0.45521750     0.38100
H790        H  0.98001271  0.63053601  0.38003814     0.29900
H791        H  0.96245136  0.55243451  0.50485873     0.30000
H792        H  0.98680070  0.52542524  0.37671959     0.30200
Zr793      Zr  0.75480906  0.61632077  0.28463265     2.17500
O794        O  0.79638523  0.65039572  0.29286120    -0.52100
O795        O  0.77878667  0.59683811  0.30173559    -0.75300
O796        O  0.75988531  0.63898120  0.33760399    -0.82100
O797        O  0.76396711  0.61814559  0.18729402    -0.83800
O798        O  0.72323484  0.62148692  0.36519559    -0.79500
O799        O  0.78148328  0.63837767  0.23637364    -0.91100
O800        O  0.75576870  0.55576662  0.29619212    -0.77100
O801        O  0.72701178  0.58128520  0.31730127    -0.86600
O802        O  0.74311353  0.58208552  0.24830347    -0.86200
O803        O  0.72063476  0.62250721  0.29803241    -0.73000
O804        O  0.73569863  0.62320918  0.23604122    -0.85100
Zr805      Zr  0.66148303  0.55992818  0.24494755     2.26400
Zr806      Zr  0.69271751  0.58678275  0.33051918     2.06300
Zr807      Zr  0.72297707  0.58797605  0.20093896     2.10000
Zr808      Zr  0.71490254  0.54731274  0.27995896     1.78800
O809        O  0.72880996  0.60929273  0.14702259    -0.93900
O810        O  0.71060349  0.52646199  0.33391792    -0.41700
O811        O  0.69448395  0.55239333  0.23137083    -0.78400
O812        O  0.68077339  0.55250186  0.29339589    -0.97100
O813        O  0.67376795  0.59383508  0.28217978    -0.90400
O814        O  0.68976956  0.59487220  0.21349935    -0.93200
C815        C  0.77604744  0.57523303  0.30314757     1.00500
C816        C  0.78156576  0.63513255  0.20400658     1.13500
C817        C  0.74603975  0.63822438  0.36222866     1.04300
O818        O  0.69796027  0.56523324  0.37817461    -0.95400
O819        O  0.64870239  0.55565921  0.34071209    -0.91100
O820        O  0.63237508  0.53786267  0.28986973    -0.84300
C821        C  0.63075029  0.53968304  0.32221305     1.10900
O822        O  0.73308714  0.67156555  0.24875192    -0.97300
Zr823      Zr  0.70149701  0.62858342  0.25000720     1.88900
O824        O  0.63448136  0.57790324  0.24336381    -0.74000
O825        O  0.66969276  0.59950918  0.36667884    -0.53300
O826        O  0.69452477  0.65345709  0.29092730    -0.97900
O827        O  0.70227488  0.64725835  0.19532179    -0.55100
O828        O  0.65918336  0.61913399  0.24507537    -0.74500
C829        C  0.63797838  0.59981657  0.24442628     0.97800
O830        O  0.63077894  0.51954219  0.22489899    -0.63300
O831        O  0.73895228  0.56306052  0.17724732    -0.58100
O832        O  0.65501593  0.55265864  0.18309041    -0.94800
O833        O  0.69229722  0.56409534  0.15961868    -0.93200
O834        O  0.72407589  0.52480647  0.23770973    -0.93600
O835        O  0.68320606  0.50437268  0.28098287    -0.92400
C836        C  0.66913128  0.55504967  0.15775180     1.16700
H837        H  0.75713308  0.58093325  0.24069149     0.32600
H838        H  0.66954363  0.53756184  0.30494546     0.43500
H839        H  0.68266109  0.59720631  0.19317187     0.37000
H840        H  0.72557325  0.63778292  0.30965790     0.33500
H841        H  0.72483178  0.53805125  0.34780129     0.25300
H842        H  0.67919171  0.60551103  0.38806424     0.31200
H843        H  0.68955300  0.66332985  0.27704981     0.37100
H844        H  0.72618072  0.51269245  0.25104616     0.31600
H845        H  0.72431728  0.54787318  0.16945429     0.30500
H846        H  0.73361023  0.60055604  0.13054703     0.32100
H847        H  0.68546668  0.63750766  0.18606891     0.31100
H848        H  0.67133341  0.50292140  0.26331070     0.35100
H849        H  0.63101227  0.50793521  0.24160947     0.27800
H850        H  0.80268252  0.64635278  0.31344464     0.32100
H851        H  0.74449152  0.67341290  0.26737888     0.34900
H852        H  0.74734204  0.57151682  0.15597194     0.27500
H853        H  0.61477559  0.51862942  0.22829094     0.40400
H854        H  0.70598768  0.57778020  0.39612539     0.30500
H855        H  0.69631817  0.52602076  0.34518056     0.38100
H856        H  0.71253349  0.64335811  0.18039017     0.29900
H857        H  0.67129351  0.61419918  0.35536904     0.30000
H858        H  0.79489340  0.66477583  0.29915580     0.30200
Zr859      Zr  0.80462595  0.72618100  0.54688910     2.17500
O860        O  0.80200382  0.68707471  0.53454406    -0.52100
O861        O  0.84846246  0.74494423  0.53206820    -0.75300
O862        O  0.79231526  0.71202930  0.48809931    -0.82100
O863        O  0.80664415  0.71648672  0.64352212    -0.83800
O864        O  0.77578267  0.73285686  0.46301198    -0.79500
O865        O  0.80919831  0.70180065  0.59160023    -0.91100
O866        O  0.86711563  0.78564968  0.54306503    -0.77100
O867        O  0.81667431  0.76500556  0.52176416    -0.86600
O868        O  0.82514959  0.75592112  0.59030216    -0.86200
O869        O  0.76639717  0.72340160  0.53024132    -0.73000
O870        O  0.77562860  0.71611677  0.59267575    -0.85100
Zr871      Zr  0.76919308  0.78270989  0.59276747     2.26400
Zr872      Zr  0.77895150  0.76274241  0.50503257     2.06300
Zr873      Zr  0.79604586  0.74732111  0.63452391     2.10000
Zr874      Zr  0.83642437  0.79432432  0.56613465     1.78800
O875        O  0.77064971  0.72253463  0.68181115    -0.93900
O876        O  0.85771016  0.82600966  0.52356418    -0.41700
O877        O  0.80737116  0.78617103  0.61090971    -0.78400
O878        O  0.79949653  0.79298371  0.54832253    -0.97100
O879        O  0.74934814  0.75257005  0.54964165    -0.90400
O880        O  0.75824220  0.74453711  0.61820602    -0.93200
C881        C  0.86746351  0.76655599  0.53274484     1.00500
C882        C  0.80992074  0.70206777  0.62436410     1.13500
C883        C  0.78166286  0.71610181  0.46302813     1.04300
O884        O  0.80951068  0.78661324  0.46195239    -0.95400
O885        O  0.77069733  0.79638746  0.49722117    -0.91100
O886        O  0.76495169  0.80795748  0.54984144    -0.84300
C887        C  0.76650745  0.81003249  0.51724947     1.10900
O888        O  0.72298469  0.67069905  0.57481703    -0.97300
Zr889      Zr  0.73834926  0.71451054  0.57579556     1.88900
O890        O  0.72450600  0.76608667  0.59407329    -0.74000
O891        O  0.74545199  0.75548614  0.46703525    -0.53300
O892        O  0.71003023  0.69441062  0.52878249    -0.97900
O893        O  0.71673506  0.69178685  0.62668610    -0.55100
O894        O  0.70713965  0.72559528  0.58225401    -0.74500
C895        C  0.70587835  0.74482516  0.58823922     0.97800
O896        O  0.77811141  0.82328575  0.61062348    -0.63300
O897        O  0.83417615  0.76681419  0.66684166    -0.58100
O898        O  0.76869502  0.78647308  0.65529906    -0.94800
O899        O  0.79135670  0.77098944  0.67793133    -0.93200
O900        O  0.86644067  0.80480054  0.61148147    -0.93600
O901        O  0.85022232  0.83595872  0.58479747    -0.92400
C902        C  0.77870285  0.78155137  0.68041655     1.16700
H903        H  0.83929691  0.75533162  0.59872923     0.32600
H904        H  0.80492483  0.80915694  0.53954373     0.43500
H905        H  0.74736860  0.74118315  0.63765422     0.37000
H906        H  0.75686501  0.70980501  0.51496982     0.33500
H907        H  0.87533452  0.83197970  0.52755969     0.25300
H908        H  0.75061101  0.75344365  0.44403031     0.31200
H909        H  0.69367243  0.68517199  0.53959810     0.37100
H910        H  0.88224841  0.81692522  0.60113332     0.31600
H911        H  0.83804627  0.78390749  0.67010005     0.30500
H912        H  0.76926243  0.70631822  0.67931641     0.32100
H913        H  0.70910837  0.70080724  0.63657171     0.31100
H914        H  0.84391468  0.83427683  0.60834303     0.35100
H915        H  0.76434002  0.82064720  0.62560413     0.27800
H916        H  0.81340321  0.69016161  0.51534358     0.32100
H917        H  0.73711335  0.66914246  0.56710826     0.34900
H918        H  0.82957623  0.75942152  0.68981592     0.27500
H919        H  0.79253129  0.82940140  0.62585197     0.40400
H920        H  0.81544583  0.77578380  0.45324349     0.30500
H921        H  0.85399663  0.81711492  0.50164236     0.38100
H922        H  0.72981322  0.69439259  0.64297777     0.29900
H923        H  0.73183641  0.73916463  0.47343651     0.30000
H924        H  0.78538776  0.67638903  0.52512923     0.30200
Zr925      Zr  0.70971369  0.82076697  0.95028006     2.17500
O926        O  0.67609157  0.82867688  0.96118430    -0.52100
O927        O  0.73079652  0.86460699  0.96377667    -0.75300
O928        O  0.69327068  0.80869188  0.00786739    -0.82100
O929        O  0.70068333  0.82175146  0.85377642    -0.83800
O930        O  0.71196383  0.79047392  0.03466745    -0.79500
O931        O  0.68513534  0.82442913  0.90483574    -0.91100
O932        O  0.77172200  0.88066726  0.95960219    -0.77100
O933        O  0.74705672  0.83001665  0.97810641    -0.86600
O934        O  0.74094466  0.83999791  0.90847518    -0.86200
O935        O  0.70424653  0.78159682  0.96788766    -0.73000
O936        O  0.69832015  0.79094770  0.90539545    -0.85100
Zr937      Zr  0.76234807  0.77994994  0.90896511     2.26400
Zr938      Zr  0.74243708  0.79142392  0.99527786     2.06300
Zr939      Zr  0.73067159  0.81002405  0.86478765     2.10000
Zr940      Zr  0.77803106  0.84856299  0.93566538     1.78800
O941        O  0.70358569  0.78856669  0.81715292    -0.93900
O942        O  0.80544230  0.86434243  0.98453446    -0.41700
O943        O  0.76854776  0.81910778  0.89084471    -0.78400
O944        O  0.77410125  0.81055927  0.95307426    -0.97100
O945        O  0.73123146  0.76166520  0.95105499    -0.90400
O946        O  0.72511941  0.77120679  0.88151770    -0.93200
C947        C  0.75284422  0.88259055  0.96662064     1.00500
C948        C  0.68598455  0.82520883  0.87212002     1.13500
C949        C  0.69576022  0.79716546  0.03310280     1.04300
O950        O  0.76769148  0.82065407  0.03875329    -0.95400
O951        O  0.77430446  0.78031541  0.00503226    -0.91100
O952        O  0.78691230  0.77526922  0.95281072    -0.84300
C953        C  0.78834736  0.77623592  0.98546852     1.10900
O954        O  0.65152406  0.74316393  0.92401015    -0.97300
Zr955      Zr  0.69412615  0.75269583  0.92337373     1.88900
O956        O  0.74350038  0.73531583  0.91181142    -0.74000
O957        O  0.72941341  0.75682521  0.03365538    -0.53300
O958        O  0.67028953  0.72493093  0.96922282    -0.97900
O959        O  0.67413517  0.72916409  0.87212776    -0.55100
O960        O  0.70322595  0.71977048  0.92458292    -0.74500
C961        C  0.72207281  0.71751147  0.91927647     0.97800
O962        O  0.79957376  0.78355138  0.88423774    -0.63300
O963        O  0.75333615  0.84631868  0.82955242    -0.58100
O964        O  0.76843622  0.77928617  0.84730511    -0.94800
O965        O  0.75174306  0.80023120  0.82273435    -0.93200
O966        O  0.79374348  0.87882625  0.89023293    -0.93600
O967        O  0.82086225  0.86284281  0.92224755    -0.92400
C968        C  0.76326036  0.78843894  0.82149699     1.16700
H969        H  0.74161589  0.85460596  0.89988867     0.32600
H970        H  0.78983949  0.81507297  0.96245514     0.43500
H971        H  0.72169987  0.76051004  0.86223770     0.37000
H972        H  0.69016474  0.77261964  0.98229900     0.33500
H973        H  0.81491778  0.88224105  0.98102795     0.25300
H974        H  0.73368722  0.76406890  0.05675017     0.31200
H975        H  0.66145737  0.70859215  0.95843999     0.37100
H976        H  0.79488490  0.86995813  0.87015219     0.31600
H977        H  0.74338511  0.84268508  0.80856654     0.30500
H978        H  0.69022993  0.77334774  0.82721616     0.32100
H979        H  0.65915244  0.71455012  0.88051886     0.31100
H980        H  0.82075206  0.84851413  0.91185478     0.35100
H981        H  0.81300480  0.79959033  0.89200345     0.27800
H982        H  0.67857453  0.83567872  0.98434201     0.32100
H983        H  0.64904269  0.74907146  0.90184422     0.34900
H984        H  0.75154427  0.85930142  0.84096003     0.27500
H985        H  0.80242842  0.77129253  0.89583217     0.40400
H986        H  0.76089264  0.81212693  0.06061165     0.30500
H987        H  0.79457584  0.86217408  0.00404675     0.38100
H988        H  0.68464835  0.72265844  0.86403797     0.29900
H989        H  0.71126803  0.74802350  0.03295307     0.30000
H990        H  0.66105634  0.81251013  0.96281002     0.30200
Zr991      Zr  0.60369601  0.76621313  0.21644379     2.17500
O992        O  0.63860718  0.80677839  0.20503106    -0.52100
O993        O  0.58463960  0.79111115  0.20201160    -0.75300
O994        O  0.62232388  0.76961597  0.16113705    -0.82100
O995        O  0.60685232  0.77830739  0.31169160    -0.83800
O996        O  0.60383977  0.73280789  0.13409073    -0.79500
O997        O  0.62922714  0.79234127  0.26319177    -0.91100
O998        O  0.54336480  0.76726935  0.20179934    -0.77100
O999        O  0.56801566  0.73827601  0.18500759    -0.86600
O1000       O  0.57014788  0.75572601  0.25348064    -0.86200
O1001       O  0.60866891  0.73148459  0.20255810    -0.73000
O1002       O  0.61137806  0.74739062  0.26439275    -0.85100
Zr1003     Zr  0.54615188  0.67360712  0.25893339     2.26400
Zr1004     Zr  0.57198015  0.70311398  0.17230121     2.06300
Zr1005     Zr  0.57699114  0.73625985  0.30066029     2.10000
Zr1006     Zr  0.53461750  0.72747789  0.22286773     1.78800
O1007       O  0.60163961  0.74513133  0.35209246    -0.93900
O1008       O  0.51282450  0.72067453  0.16900811    -0.41700
O1009       O  0.54045638  0.70777122  0.27158705    -0.78400
O1010       O  0.53819365  0.69228623  0.21029424    -0.97100
O1011       O  0.57930764  0.68443545  0.22042901    -0.90400
O1012       O  0.58228972  0.70210556  0.28823271    -0.93200
C1013       C  0.56294317  0.78793709  0.19744227     1.00500
C1014       C  0.62540638  0.79425150  0.29495363     1.13500
C1015       C  0.62020483  0.75562523  0.13616687     1.04300
O1016       O  0.54763043  0.70374264  0.12455627    -0.95400
O1017       O  0.54163583  0.65923034  0.16379577    -0.91100
O1018       O  0.52391951  0.64358550  0.21480356    -0.84300
C1019       C  0.52571492  0.64157211  0.18251956     1.10900
O1020       O  0.65883124  0.74188294  0.25352072    -0.97300
Zr1021     Zr  0.61519369  0.71240337  0.25039750     1.88900
O1022       O  0.56326464  0.64592969  0.26218722    -0.74000
O1023       O  0.58961363  0.68282479  0.13969721    -0.53300
O1024       O  0.64132487  0.70829320  0.20817643    -0.97900
O1025       O  0.63309176  0.71150120  0.30508157    -0.55100
O1026       O  0.60443102  0.66986105  0.25487844    -0.74500
C1027       C  0.58501261  0.64899855  0.25871913     0.97800
O1028       O  0.50547003  0.64481339  0.28097085    -0.63300
O1029       O  0.54951020  0.74889352  0.32498030    -0.58100
O1030       O  0.53944063  0.66880884  0.32122226    -0.94800
O1031       O  0.55532762  0.70686074  0.34422898    -0.93200
O1032       O  0.51646191  0.74263172  0.26399322    -0.93600
O1033       O  0.49096293  0.69829432  0.22812594    -0.92400
C1034       C  0.54415521  0.68364186  0.34649442     1.16700
H1035       H  0.56930227  0.76988322  0.26096697     0.32600
H1036       H  0.52286037  0.68080693  0.19929788     0.43500
H1037       H  0.58476106  0.69509096  0.30866046     0.37000
H1038       H  0.62323092  0.73611860  0.18949459     0.33500
H1039       H  0.52489549  0.73305790  0.15320953     0.25300
H1040       H  0.58739501  0.68576761  0.11553457     0.31200
H1041       H  0.63073839  0.69225611  0.19725946     0.37100
H1042       H  0.50699451  0.72888249  0.27982177     0.31600
H1043       H  0.53422864  0.73345865  0.33014968     0.30500
H1044       H  0.59280855  0.74904150  0.36962256     0.32100
H1045       H  0.62348818  0.69439036  0.31305515     0.31100
H1046       H  0.49020491  0.68439724  0.24079237     0.35100
H1047       H  0.49492748  0.65140464  0.27339461     0.27800
H1048       H  0.63579723  0.81176766  0.18236445     0.32100
H1049       H  0.66023519  0.75728722  0.24510278     0.34900
H1050       H  0.55662155  0.75569926  0.34757550     0.27500
H1051       H  0.49944514  0.62939475  0.26817505     0.40400
H1052       H  0.55585733  0.72102007  0.11717341     0.30500
H1053       H  0.51054106  0.70495099  0.16038929     0.38100
H1054       H  0.62863112  0.72089957  0.32083108     0.29900
H1055       H  0.60750890  0.69269903  0.14365926     0.30000
H1056       H  0.65295563  0.80452023  0.20203582     0.30200
Zr1057     Zr  0.50778397  0.57510767  0.61945693     2.17500
O1058       O  0.50662382  0.53633967  0.62877773    -0.52100
O1059       O  0.46467222  0.55064765  0.63696138    -0.75300
O1060       O  0.52171881  0.57161499  0.67616375    -0.82100
O1061       O  0.50521453  0.56472739  0.52260531    -0.83800
O1062       O  0.53696035  0.60812459  0.70348423    -0.79500
O1063       O  0.50397208  0.54702651  0.57349324    -0.91100
O1064       O  0.44577852  0.57285345  0.62896312    -0.77100
O1065       O  0.49654286  0.60167392  0.64761796    -0.86600
O1066       O  0.48590894  0.58473153  0.57861791    -0.86200
O1067       O  0.54619496  0.61051851  0.63602835    -0.73000
O1068       O  0.53585125  0.59456951  0.57311476    -0.85100
Zr1069     Zr  0.54124271  0.66707241  0.57623846     2.26400
Zr1070     Zr  0.53444042  0.63722026  0.66387850     2.06300
Zr1071     Zr  0.51422882  0.60535358  0.53340853     2.10000
Zr1072     Zr  0.47555495  0.61193197  0.60600048     1.78800
O1073       O  0.53678303  0.60110829  0.48596347    -0.93900
O1074       O  0.45917402  0.62169032  0.65613344    -0.41700
O1075       O  0.50288696  0.63238743  0.55931792    -0.78400
O1076       O  0.51272954  0.64745829  0.62263316    -0.97100
O1077       O  0.56234376  0.65674623  0.61762775    -0.90400
O1078       O  0.55215412  0.64031617  0.54888077    -0.93200
C1079       C  0.44585462  0.55352676  0.63831628     1.00500
C1080       C  0.50279367  0.54696701  0.54074789     1.13500
C1081       C  0.53194925  0.58566393  0.70188978     1.04300
O1082       O  0.50637410  0.63322032  0.70936835    -0.95400
O1083       O  0.54520756  0.68041489  0.67205380    -0.91100
O1084       O  0.54594124  0.69637353  0.61996062    -0.84300
C1085       C  0.54779624  0.69806178  0.65256127     1.10900
O1086       O  0.58711217  0.60053414  0.58650534    -0.97300
Zr1087     Zr  0.57320625  0.63015883  0.58964008     1.88900
O1088       O  0.58571769  0.69514011  0.57454269    -0.74000
O1089       O  0.57017010  0.66106215  0.69981567    -0.53300
O1090       O  0.60327231  0.63525226  0.63261993    -0.97900
O1091       O  0.59549825  0.63341997  0.53721623    -0.55100
O1092       O  0.60382281  0.67284702  0.58789544    -0.74500
C1093       C  0.60455631  0.69300375  0.58124859     0.97800
O1094       O  0.53069028  0.69686371  0.55486875    -0.63300
O1095       O  0.47624989  0.58871229  0.50099328    -0.58100
O1096       O  0.54099730  0.67242403  0.51377674    -0.94800
O1097       O  0.52225790  0.63457024  0.48970398    -0.93200
O1098       O  0.44190167  0.59503342  0.56516225    -0.93600
O1099       O  0.45791103  0.63733574  0.59140589    -0.92400
C1100       C  0.53288810  0.65777433  0.48797361     1.16700
H1101       H  0.47157782  0.57007523  0.57049648     0.32600
H1102       H  0.50779221  0.65836935  0.63248414     0.43500
H1103       H  0.56245592  0.64797467  0.52931098     0.37000
H1104       H  0.55612900  0.60639627  0.65030511     0.33500
H1105       H  0.46419869  0.61518530  0.67548426     0.25300
H1106       H  0.56619421  0.65269441  0.72215458     0.31200
H1107       H  0.60645801  0.65001380  0.64551128     0.37100
H1108       H  0.44468858  0.58394624  0.55045857     0.31600
H1109       H  0.47345184  0.60265555  0.49772624     0.30500
H1110       H  0.52488161  0.59452095  0.46694237     0.32100
H1111       H  0.60120288  0.65006606  0.52836601     0.31100
H1112       H  0.47106301  0.65425026  0.59626989     0.35100
H1113       H  0.51816686  0.69619352  0.57079540     0.27800
H1114       H  0.49517001  0.52838728  0.64799754     0.32100
H1115       H  0.57670389  0.58874103  0.56879527     0.34900
H1116       H  0.48056474  0.58554431  0.47802794     0.27500
H1117       H  0.54539979  0.71304010  0.55876301     0.40400
H1118       H  0.51674507  0.63898464  0.73004196     0.30500
H1119       H  0.46900867  0.63962744  0.65891155     0.38100
H1120       H  0.58282326  0.62239191  0.52084036     0.29900
H1121       H  0.58311560  0.65836935  0.69006564     0.30000
H1122       H  0.52298877  0.54045782  0.63760772     0.30200
Zr1123     Zr  0.55826031  0.51754010  0.88647371     2.17500
O1124       O  0.51847483  0.51489596  0.87986714    -0.52100
O1125       O  0.53368047  0.47428576  0.86987094    -0.75300
O1126       O  0.55424563  0.53377703  0.83154379    -0.82100
O1127       O  0.54755279  0.50935366  0.98328611    -0.83800
O1128       O  0.59085362  0.55034934  0.80404632    -0.79500
O1129       O  0.53077159  0.51264434  0.93367089    -0.91100
O1130       O  0.55573768  0.45530814  0.87796062    -0.77100
O1131       O  0.58524973  0.50780473  0.85609519    -0.86600
O1132       O  0.56896083  0.49533201  0.92509152    -0.86200
O1133       O  0.59324809  0.55669359  0.87132606    -0.73000
O1134       O  0.57709556  0.54400260  0.93450176    -0.85100
Zr1135     Zr  0.65086073  0.55221813  0.92869754     2.26400
Zr1136     Zr  0.62039403  0.54640120  0.84159749     2.06300
Zr1137     Zr  0.58921113  0.52201323  0.97175151     2.10000
Zr1138     Zr  0.59643161  0.48642629  0.89568006     1.78800
O1139       O  0.58594636  0.54352814  0.02117260    -0.93900
O1140       O  0.60120814  0.46979922  0.84208080    -0.41700
O1141       O  0.61695146  0.51273966  0.94340525    -0.78400
O1142       O  0.63165937  0.52459659  0.88096783    -0.97100
O1143       O  0.63917008  0.57313144  0.88906212    -0.90400
O1144       O  0.62322181  0.56099500  0.95783459    -0.93200
C1145       C  0.53603890  0.45517221  0.86941175     1.00500
C1146       C  0.53020266  0.50871937  0.96588032     1.13500
C1147       C  0.56827285  0.54531171  0.80620571     1.04300
O1148       O  0.61678040  0.51770556  0.79742960    -0.95400
O1149       O  0.66486232  0.56153068  0.83462505    -0.91100
O1150       O  0.68061190  0.55873323  0.88523351    -0.84300
C1151       C  0.68260097  0.56325055  0.85320918     1.10900
O1152       O  0.58032192  0.59359511  0.91651829    -0.97300
Zr1153     Zr  0.61194999  0.58218205  0.91908515     1.88900
O1154       O  0.67825405  0.59715530  0.92997063    -0.74000
O1155       O  0.64472268  0.57961045  0.80223457    -0.53300
O1156       O  0.62024226  0.61655516  0.88246564    -0.97900
O1157       O  0.61318727  0.59892022  0.97552296    -0.55100
O1158       O  0.65410091  0.61394245  0.92142838    -0.74500
C1159       C  0.67496609  0.61558100  0.92575784     0.97800
O1160       O  0.67988948  0.54076925  0.95083924    -0.63300
O1161       O  0.57217692  0.48265040  0.00036501    -0.58100
O1162       O  0.65642958  0.55198859  0.99117888    -0.94800
O1163       O  0.61870007  0.52769524  0.01441509    -0.93200
O1164       O  0.58311024  0.45379752  0.93756270    -0.93600
O1165       O  0.62552391  0.47185638  0.90065424    -0.92400
C1166       C  0.64194253  0.54102966  0.01656578     1.16700
H1167       H  0.55464106  0.48064372  0.93297806     0.32600
H1168       H  0.64296337  0.52047752  0.87017058     0.43500
H1169       H  0.63064986  0.57086656  0.97777383     0.37000
H1170       H  0.58913014  0.56702022  0.85835919     0.33500
H1171       H  0.59327054  0.45197391  0.84604816     0.25300
H1172       H  0.63502319  0.57577874  0.78100306     0.31200
H1173       H  0.62759473  0.61401477  0.86166884     0.37100
H1174       H  0.59457685  0.46117439  0.95692062     0.31600
H1175       H  0.58650092  0.48149286  0.00817941     0.30500
H1176       H  0.58467927  0.55731670  0.01154320     0.32100
H1177       H  0.59767793  0.59919469  0.97779468     0.31100
H1178       H  0.64044448  0.48582093  0.91044664     0.35100
H1179       H  0.68052012  0.52967867  0.93356810     0.27800
H1180       H  0.51027303  0.50332302  0.86093761     0.32100
H1181       H  0.56905192  0.58325525  0.89826392     0.34900
H1182       H  0.56478010  0.48459656  0.02155254     0.27500
H1183       H  0.69613587  0.55579275  0.94967610     0.40400
H1184       H  0.60525126  0.51803494  0.78059285     0.30500
H1185       H  0.59010795  0.47155722  0.82595121     0.38100
H1186       H  0.62607828  0.61632206  0.97398226     0.29900
H1187       H  0.64472085  0.59402356  0.81206878     0.30000
H1188       H  0.52174903  0.53100402  0.87132573     0.30200
Zr1189     Zr  0.47537662  0.43429431  0.38200433     2.17500
O1190       O  0.47657331  0.47133793  0.36161601    -0.52100
O1191       O  0.51851599  0.45876052  0.36632676    -0.75300
O1192       O  0.48240612  0.46364177  0.42725139    -0.82100
O1193       O  0.44163223  0.40009539  0.30063682    -0.83800
O1194       O  0.48268493  0.44664114  0.47797960    -0.79500
O1195       O  0.45582328  0.43580227  0.32947954    -0.91100
O1196       O  0.53827029  0.43842337  0.38129673    -0.77100
O1197       O  0.49634218  0.42426892  0.42346661    -0.86600
O1198       O  0.48697889  0.40795697  0.35383936    -0.86200
O1199       O  0.44603564  0.41530382  0.42724732    -0.73000
O1200       O  0.43802603  0.39926261  0.36397535    -0.85100
Zr1201     Zr  0.43870947  0.34219353  0.42486953     2.26400
Zr1202     Zr  0.46715169  0.40406630  0.46759615     2.06300
Zr1203     Zr  0.44928959  0.37260181  0.33658679     2.10000
Zr1204     Zr  0.50654722  0.39687538  0.39666471     1.78800
O1205       O  0.41733879  0.35049298  0.29449782    -0.93900
O1206       O  0.53803269  0.40925513  0.44043201    -0.41700
O1207       O  0.46862889  0.36163464  0.38001091    -0.78400
O1208       O  0.47767424  0.37621248  0.44227003    -0.97100
O1209       O  0.42862135  0.36974574  0.45134188    -0.90400
O1210       O  0.41970686  0.35306350  0.38099698    -0.93200
C1211       C  0.53805949  0.45736596  0.36984746     1.00500
C1212       C  0.44502501  0.42189779  0.30386824     1.13500
C1213       C  0.48531153  0.46444652  0.45967096     1.04300
O1214       O  0.50561796  0.41775189  0.49776331    -0.95400
O1215       O  0.45745669  0.37422213  0.51122500    -0.91100
O1216       O  0.43702589  0.33643613  0.48715312    -0.84300
C1217       C  0.44557843  0.35094242  0.51296475     1.10900
O1218       O  0.39535665  0.40976490  0.40213213    -0.97300
Zr1219     Zr  0.40893861  0.38004693  0.40839306     1.88900
O1220       O  0.39387727  0.31481696  0.42812981    -0.74000
O1221       O  0.44655489  0.41084750  0.51544104    -0.53300
O1222       O  0.38910196  0.38151735  0.46087884    -0.97900
O1223       O  0.37922596  0.37093357  0.36299023    -0.55100
O1224       O  0.37680030  0.33846488  0.41773541    -0.74500
C1225       C  0.37530535  0.31790619  0.42396174     0.97800
O1226       O  0.44937485  0.31147610  0.44100477    -0.63300
O1227       O  0.47957501  0.37915351  0.29302294    -0.58100
O1228       O  0.43379715  0.31244636  0.38254448    -0.94800
O1229       O  0.44084524  0.33019451  0.33014863    -0.93200
O1230       O  0.52317949  0.38865555  0.34557974    -0.93600
O1231       O  0.52258948  0.36936815  0.40572477    -0.92400
C1232       C  0.43599164  0.31209489  0.35011265     1.16700
H1233       H  0.49759258  0.41592777  0.33467966     0.32600
H1234       H  0.48510209  0.37085519  0.45890535     0.43500
H1235       H  0.40562790  0.33892203  0.37121304     0.37000
H1236       H  0.44152560  0.42653249  0.43743380     0.33500
H1237       H  0.55345473  0.41432213  0.42775068     0.25300
H1238       H  0.45963706  0.42048089  0.53219980     0.31200
H1239       H  0.37163101  0.37465764  0.45468506     0.37100
H1240       H  0.53691109  0.40474324  0.33850858     0.31600
H1241       H  0.47543529  0.36255213  0.28563125     0.30500
H1242       H  0.42594508  0.34820492  0.27496124     0.32100
H1243       H  0.36340384  0.36541767  0.37477962     0.31100
H1244       H  0.50786930  0.35288849  0.40616484     0.35100
H1245       H  0.46419013  0.32023006  0.45538501     0.27800
H1246       H  0.49247262  0.48513196  0.36924169     0.32100
H1247       H  0.40892073  0.42361268  0.38985423     0.34900
H1248       H  0.47510150  0.38594303  0.27337127     0.27500
H1249       H  0.43625406  0.30009330  0.45658824     0.40400
H1250       H  0.50505910  0.42748361  0.51715156     0.30500
H1251       H  0.53999339  0.42468918  0.44968297     0.38100
H1252       H  0.37736495  0.35599308  0.35201282     0.29900
H1253       H  0.44106665  0.42210301  0.50705794     0.30000
H1254       H  0.46397955  0.47281458  0.37487760     0.30200
Zr1255     Zr  0.41929286  0.48710312  0.12569152     2.17500
O1256       O  0.45549413  0.48901489  0.15133657    -0.52100
O1257       O  0.44473984  0.53075377  0.13612585    -0.75300
O1258       O  0.44887051  0.48951870  0.08317751    -0.82100
O1259       O  0.38317654  0.45913235  0.20834889    -0.83800
O1260       O  0.43296931  0.48914397  0.03114606    -0.79500
O1261       O  0.41961307  0.47155784  0.18180301    -0.91100
O1262       O  0.42528107  0.55062404  0.11769507    -0.77100
O1263       O  0.41092227  0.50638887  0.08007894    -0.86600
O1264       O  0.39298844  0.50077259  0.14867526    -0.86200
O1265       O  0.40036994  0.45545279  0.08353600    -0.73000
O1266       O  0.38320263  0.45158838  0.14617593    -0.85100
Zr1267     Zr  0.32808164  0.45035850  0.07853095     2.26400
Zr1268     Zr  0.39045541  0.47476698  0.03897643     2.06300
Zr1269     Zr  0.35652029  0.46494728  0.16796915     2.10000
Zr1270     Zr  0.38377943  0.51888511  0.10193296     1.78800
O1271       O  0.33296735  0.43628234  0.21308390    -0.93900
O1272       O  0.39838674  0.54408039  0.05077433    -0.41700
O1273       O  0.34701915  0.48271774  0.12064016    -0.78400
O1274       O  0.36308048  0.48772216  0.05931935    -0.97100
O1275       O  0.35523538  0.43770035  0.05736807    -0.90400
O1276       O  0.33744401  0.43326918  0.12635987    -0.93200
C1277       C  0.44383381  0.55031336  0.13073523     1.00500
C1278       C  0.40506492  0.46226095  0.20722741     1.13500
C1279       C  0.45013948  0.49143102  0.05059791     1.04300
O1280       O  0.40503721  0.50933855  0.00008049    -0.95400
O1281       O  0.36255146  0.46554914  0.99326103    -0.91100
O1282       O  0.32427882  0.44801034  0.01623876    -0.84300
C1283       C  0.33932599  0.45521842  0.99096025     1.10900
O1284       O  0.39438262  0.40937158  0.12418909    -0.97300
Zr1285     Zr  0.36434258  0.42022715  0.10477495     1.88900
O1286       O  0.30017092  0.40558150  0.07975821    -0.74000
O1287       O  0.39560126  0.44866999  0.99803490    -0.53300
O1288       O  0.37037584  0.39703205  0.06009552    -0.97900
O1289       O  0.35075695  0.39201803  0.15265437    -0.55100
O1290       O  0.32287178  0.38798218  0.09347417    -0.74500
C1291       C  0.30250494  0.38683658  0.08617825     0.97800
O1292       O  0.29780217  0.45724173  0.04956896    -0.63300
O1293       O  0.36209027  0.49783933  0.20604348    -0.58100
O1294       O  0.29741195  0.44853480  0.11699735    -0.94800
O1295       O  0.31285726  0.45329692  0.17052172    -0.93200
O1296       O  0.37990305  0.54367979  0.14641464    -0.93600
O1297       O  0.35659781  0.53515128  0.09092928    -0.92400
C1298       C  0.29546417  0.44904985  0.14936875     1.16700
H1299       H  0.40106446  0.51220102  0.16701924     0.32600
H1300       H  0.35823394  0.49443395  0.04088966     0.43500
H1301       H  0.32293921  0.42002041  0.13645487     0.37000
H1302       H  0.41130422  0.44996854  0.07543598     0.33500
H1303       H  0.38354310  0.54015460  0.03738069     0.25300
H1304       H  0.40499776  0.45965286  0.97897946     0.31200
H1305       H  0.37056271  0.40534529  0.03865369     0.37100
H1306       H  0.38899199  0.54255932  0.16623965     0.31600
H1307       H  0.34869044  0.48992730  0.22292899     0.30500
H1308       H  0.33516100  0.44653988  0.23330978     0.32100
H1309       H  0.34425947  0.37560545  0.14242660     0.31100
H1310       H  0.34143739  0.52110216  0.08181561     0.35100
H1311       H  0.28170634  0.44263606  0.05445368     0.27800
H1312       H  0.46976592  0.50381137  0.14184837     0.32100
H1313       H  0.40804114  0.42476335  0.13342615     0.34900
H1314       H  0.37710785  0.50200184  0.21916595     0.27500
H1315       H  0.29762965  0.47079721  0.06197166     0.40400
H1316       H  0.42232905  0.52058704  0.00647510     0.30500
H1317       H  0.40456798  0.56099292  0.05890400     0.38100
H1318       H  0.33613655  0.39211874  0.16168336     0.29900
H1319       H  0.40710939  0.44433345  0.00883674     0.30000
H1320       H  0.45654367  0.47512086  0.14155920     0.30200
Zr1321     Zr  0.17123774  0.28304433  0.45618983     2.17500
O1322       O  0.16604628  0.31626301  0.47836855    -0.52100
O1323       O  0.12787310  0.26256549  0.47200274    -0.75300
O1324       O  0.16442778  0.30580195  0.41073920    -0.82100
O1325       O  0.20718360  0.28312207  0.53662466    -0.83800
O1326       O  0.16252608  0.28779794  0.35991069    -0.79500
O1327       O  0.19184138  0.30414309  0.50878730    -0.91100
O1328       O  0.10987550  0.22291499  0.45543549    -0.77100
O1329       O  0.15122447  0.25230235  0.41395796    -0.86600
O1330       O  0.16118774  0.24515777  0.48322230    -0.86200
O1331       O  0.20051491  0.29471470  0.41053837    -0.73000
O1332       O  0.20930437  0.28617510  0.47326497    -0.85100
Zr1333     Zr  0.21070437  0.23042030  0.41159928     2.26400
Zr1334     Zr  0.18062821  0.26278664  0.36941667     2.06300
Zr1335     Zr  0.19934759  0.24841774  0.50028108     2.10000
Zr1336     Zr  0.14258334  0.21486934  0.43979811     1.78800
O1337       O  0.23285572  0.25869124  0.53999232    -0.93900
O1338       O  0.11300964  0.19577797  0.39385865    -0.41700
O1339       O  0.18074497  0.21830546  0.45659551    -0.78400
O1340       O  0.17148281  0.22459678  0.39404570    -0.97100
O1341       O  0.21959075  0.26764109  0.38502178    -0.90400
O1342       O  0.22868170  0.26015051  0.45580670    -0.93200
C1343       C  0.10900562  0.24127004  0.46780854     1.00500
C1344       C  0.20327359  0.30119888  0.53388598     1.13500
C1345       C  0.16084364  0.30352476  0.37832710     1.04300
O1346       O  0.14533247  0.23720042  0.33361377    -0.95400
O1347       O  0.19315698  0.24584186  0.32484491    -0.91100
O1348       O  0.21406963  0.22902900  0.34926707    -0.84300
C1349       C  0.20575175  0.23516032  0.32339066     1.10900
O1350       O  0.24816805  0.33978173  0.43411808    -0.97300
Zr1351     Zr  0.23820954  0.29744024  0.42797955     1.88900
O1352       O  0.25535668  0.24812968  0.41205041    -0.74000
O1353       O  0.20256299  0.29274365  0.32478250    -0.53300
O1354       O  0.25139195  0.31247597  0.37034152    -0.97900
O1355       O  0.27327587  0.32644780  0.46168212    -0.55100
O1356       O  0.27127970  0.28839711  0.42422876    -0.74500
C1357       C  0.27338617  0.26954712  0.41873867     0.97800
O1358       O  0.20260581  0.19046445  0.39206530    -0.63300
O1359       O  0.17003747  0.22520374  0.54506637    -0.58100
O1360       O  0.21529847  0.20459781  0.45250225    -0.94800
O1361       O  0.20867714  0.21483109  0.50552893    -0.93200
O1362       O  0.12470035  0.18998398  0.49048053    -0.93600
O1363       O  0.12902720  0.17188413  0.43038883    -0.92400
C1364       C  0.21347363  0.20181335  0.48490205     1.16700
H1365       H  0.15038783  0.24187952  0.50250047     0.32600
H1366       H  0.16445762  0.21190071  0.37700765     0.43500
H1367       H  0.24259265  0.26036928  0.46633476     0.37000
H1368       H  0.20468403  0.31054382  0.40064410     0.33500
H1369       H  0.09702258  0.18598222  0.40545234     0.25300
H1370       H  0.18991085  0.29039044  0.30784189     0.31200
H1371       H  0.26762209  0.31370978  0.36793897     0.37100
H1372       H  0.13539241  0.18311795  0.49592403     0.31600
H1373       H  0.17159786  0.21050664  0.54822217     0.30500
H1374       H  0.22558463  0.24639888  0.55840263     0.32100
H1375       H  0.28727054  0.33367366  0.44559594     0.31100
H1376       H  0.14331701  0.17196446  0.41972145     0.35100
H1377       H  0.18882435  0.18484819  0.37577158     0.27800
H1378       H  0.14990818  0.31310687  0.46989238     0.32100
H1379       H  0.23797973  0.33961796  0.45346516     0.34900
H1380       H  0.17718872  0.23493457  0.56601764     0.27500
H1381       H  0.21696551  0.19361728  0.37802904     0.40400
H1382       H  0.14268843  0.24874943  0.31973645     0.30500
H1383       H  0.11192372  0.20936496  0.38312672     0.38100
H1384       H  0.27685107  0.31623120  0.47707519     0.29900
H1385       H  0.20770899  0.30885513  0.33522256     0.30000
H1386       H  0.17822770  0.33113289  0.46616310     0.30200
Zr1387     Zr  0.22915433  0.39166631  0.71787021     2.17500
O1388       O  0.19374751  0.35392625  0.69796298    -0.52100
O1389       O  0.20418851  0.41024124  0.70314930    -0.75300
O1390       O  0.19955120  0.36842875  0.76303444    -0.82100
O1391       O  0.26381794  0.39665720  0.63492825    -0.83800
O1392       O  0.21702474  0.38321802  0.81464446    -0.79500
O1393       O  0.22790076  0.37331051  0.66279957    -0.91100
O1394       O  0.22511888  0.45065705  0.71598303    -0.77100
O1395       O  0.23855713  0.42131959  0.76108878    -0.86600
O1396       O  0.25563446  0.43034886  0.69166508    -0.86200
O1397       O  0.24874716  0.38106907  0.76195709    -0.73000
O1398       O  0.26494424  0.39071587  0.69916149    -0.85100
Zr1399     Zr  0.32107937  0.44832292  0.76276922     2.26400
Zr1400     Zr  0.25914722  0.41193302  0.80431278     2.06300
Zr1401     Zr  0.29166471  0.42943096  0.67392176     2.10000
Zr1402     Zr  0.26546708  0.45975806  0.73580176     1.78800
O1403       O  0.31648553  0.41732458  0.64091118    -0.93900
O1404       O  0.24772901  0.47342526  0.77984091    -0.41700
O1405       O  0.30157600  0.45902129  0.71823644    -0.78400
O1406       O  0.28617573  0.45135924  0.78101570    -0.97100
O1407       O  0.29433356  0.40967141  0.78709238    -0.90400
O1408       O  0.31130467  0.41953960  0.71780847    -0.93200
C1409       C  0.20594093  0.43140013  0.70524326     1.00500
C1410       C  0.24202086  0.37793065  0.63687116     1.13500
C1411       C  0.19906284  0.36899284  0.79575754     1.04300
O1412       O  0.24474267  0.43404448  0.83934662    -0.95400
O1413       O  0.28793518  0.43080469  0.84925149    -0.91100
O1414       O  0.32587618  0.44882704  0.82517143    -0.84300
C1415       C  0.31124889  0.44207084  0.85096315     1.10900
O1416       O  0.25597011  0.33799541  0.73144831    -0.97300
Zr1417     Zr  0.28486458  0.38088185  0.74271063     1.88900
O1418       O  0.34997695  0.43308416  0.76357188    -0.74000
O1419       O  0.25523131  0.38294395  0.84827404    -0.53300
O1420       O  0.28209667  0.35668713  0.79253041    -0.97900
O1421       O  0.29609571  0.36297233  0.69600900    -0.55100
O1422       O  0.32732215  0.39237952  0.75255658    -0.74500
C1423       C  0.34768791  0.41195906  0.75855861     0.97800
O1424       O  0.35133982  0.48857253  0.78369761    -0.63300
O1425       O  0.28856399  0.45200024  0.62564615    -0.58100
O1426       O  0.35135228  0.47405609  0.72132929    -0.94800
O1427       O  0.33382399  0.46409789  0.66876215    -0.93200
O1428       O  0.27284230  0.48582383  0.68642396    -0.93600
O1429       O  0.29300614  0.50252452  0.74986842    -0.92400
C1430       C  0.35200070  0.47691079  0.68892416     1.16700
H1431       H  0.24793842  0.43329810  0.67244111     0.32600
H1432       H  0.29108055  0.46366769  0.79848349     0.43500
H1433       H  0.32581480  0.42042801  0.70787689     0.37000
H1434       H  0.23775411  0.36512875  0.77114292     0.33500
H1435       H  0.23383194  0.45822099  0.78905566     0.25300
H1436       H  0.24401732  0.38341393  0.86556694     0.31200
H1437       H  0.29070221  0.36872820  0.81088982     0.37100
H1438       H  0.28530097  0.48431152  0.67292537     0.31600
H1439       H  0.30533154  0.46597926  0.62229324     0.30500
H1440       H  0.31588751  0.42266300  0.61740694     0.32100
H1441       H  0.30559090  0.35614789  0.70676600     0.31100
H1442       H  0.30962359  0.50454160  0.74851445     0.35100
H1443       H  0.34316520  0.49251025  0.80215700     0.27800
H1444       H  0.17910777  0.35488648  0.70469163     0.32100
H1445       H  0.24418047  0.33824379  0.71498992     0.34900
H1446       H  0.28584459  0.44136096  0.60568114     0.27500
H1447       H  0.36399031  0.48620888  0.79521892     0.40400
H1448       H  0.23438733  0.42225009  0.85708873     0.30500
H1449       H  0.25989420  0.47961927  0.79855042     0.38100
H1450       H  0.30836744  0.37709774  0.68264880     0.29900
H1451       H  0.24583167  0.36662562  0.83757010     0.30000
H1452       H  0.19323853  0.34069477  0.71210420     0.30200
Zr1453     Zr  0.26658682  0.18532303  0.04864375     2.17500
O1454       O  0.30339058  0.18624118  0.02708780    -0.52100
O1455       O  0.24778496  0.14212559  0.03445915    -0.75300
O1456       O  0.29002209  0.17880258  0.09331528    -0.82100
O1457       O  0.25952140  0.21385852  0.96590669    -0.83800
O1458       O  0.27370015  0.17874032  0.14493882    -0.79500
O1459       O  0.28320926  0.20099005  0.99213401    -0.91100
O1460       O  0.20744564  0.12331669  0.04888613    -0.77100
O1461       O  0.23762204  0.16597339  0.09324017    -0.86600
O1462       O  0.22716456  0.17286355  0.02448004    -0.86200
O1463       O  0.27900987  0.21612786  0.09202647    -0.73000
O1464       O  0.26765554  0.22193573  0.02967803    -0.85100
Zr1465     Zr  0.21151711  0.22193905  0.09598105     2.26400
Zr1466     Zr  0.24894395  0.19688489  0.13569612     2.06300
Zr1467     Zr  0.22802678  0.20947374  0.00658859     2.10000
Zr1468     Zr  0.19853565  0.15439472  0.06976470     1.78800
O1469       O  0.23596393  0.24045536  0.96384699    -0.93900
O1470       O  0.18568998  0.12527987  0.11664858    -0.41700
O1471       O  0.19910530  0.19104989  0.05208241    -0.78400
O1472       O  0.20893898  0.18435782  0.11410316    -0.97100
O1473       O  0.25084157  0.23388090  0.11844649    -0.90400
O1474       O  0.23957416  0.23978331  0.04975893    -0.93200
C1475       C  0.22639862  0.12316172  0.03703538     1.00500
C1476       C  0.27807283  0.21049530  0.96674388     1.13500
C1477       C  0.28858151  0.17608289  0.12586941     1.04300
O1478       O  0.23113115  0.16672677  0.18104301    -0.95400
O1479       O  0.23093378  0.20715124  0.18136376    -0.91100
O1480       O  0.21091555  0.22541080  0.15848044    -0.84300
C1481       C  0.21876041  0.21820353  0.18380295     1.10900
O1482       O  0.32209907  0.26571312  0.06366529    -0.97300
Zr1483     Zr  0.27891305  0.25214482  0.07290874     1.88900
O1484       O  0.22824348  0.26663687  0.09682134    -0.74000
O1485       O  0.28322095  0.22656514  0.17005852    -0.53300
O1486       O  0.30286393  0.27469948  0.12239350    -0.97900
O1487       O  0.29650657  0.27950321  0.02449048    -0.55100
O1488       O  0.26844255  0.28376687  0.08186856    -0.74500
C1489       C  0.24942929  0.28518932  0.08977582     0.97800
O1490       O  0.17157757  0.20927306  0.12144854    -0.63300
O1491       O  0.20086687  0.17770319  0.96698424    -0.58100
O1492       O  0.18503482  0.22606702  0.05520562    -0.94800
O1493       O  0.19763368  0.22281546  0.00237106    -0.93200
O1494       O  0.17068982  0.13490577  0.02207424    -0.93600
O1495       O  0.15543890  0.13809374  0.08411646    -0.92400
C1496       C  0.18397521  0.22686353  0.02264729     1.16700
H1497       H  0.22366428  0.16183788  0.00539674     0.32600
H1498       H  0.19705433  0.17723611  0.13226074     0.43500
H1499       H  0.23875098  0.25325921  0.03974581     0.37000
H1500       H  0.29521936  0.22087329  0.10041704     0.33500
H1501       H  0.17183937  0.10999661  0.10752257     0.25300
H1502       H  0.28012663  0.21924302  0.19308886     0.31200
H1503       H  0.29095186  0.27553534  0.13801282     0.37100
H1504       H  0.16202815  0.14421545  0.01898037     0.31600
H1505       H  0.18414223  0.17299835  0.97479364     0.30500
H1506       H  0.23021879  0.23143927  0.94207310     0.32100
H1507       H  0.30670222  0.29592182  0.03459583     0.31100
H1508       H  0.15491731  0.15168770  0.09585047     0.35100
H1509       H  0.16737340  0.22187206  0.11501573     0.27800
H1510       H  0.30236655  0.17083691  0.03477678     0.32100
H1511       H  0.32207283  0.25200030  0.05141346     0.34900
H1512       H  0.20276376  0.18628748  0.94515194     0.27500
H1513       H  0.15992710  0.19450081  0.10857462     0.40400
H1514       H  0.21628760  0.15296956  0.17079105     0.30500
H1515       H  0.19914613  0.12158172  0.11919362     0.38100
H1516       H  0.28248298  0.28006491  0.01410528     0.29900
H1517       H  0.29781523  0.22604100  0.16183544     0.30000
H1518       H  0.31719675  0.19932152  0.04006371     0.30200
Zr1519     Zr  0.37327845  0.24032185  0.78381814     2.17500
O1520       O  0.33649643  0.20292961  0.80155101    -0.52100
O1521       O  0.39179437  0.21572707  0.80114764    -0.75300
O1522       O  0.35191078  0.21165450  0.73721654    -0.82100
O1523       O  0.37299636  0.27246952  0.86585593    -0.83800
O1524       O  0.37128605  0.22845849  0.68736948    -0.79500
O1525       O  0.35136440  0.23707924  0.83631883    -0.91100
O1526       O  0.43277814  0.23702728  0.79102256    -0.77100
O1527       O  0.40527947  0.25057051  0.74387516    -0.86600
O1528       O  0.41063709  0.26672335  0.81336504    -0.86200
O1529       O  0.36447323  0.25984345  0.73749940    -0.73000
O1530       O  0.37019689  0.27528577  0.80109801    -0.85100
Zr1531     Zr  0.43123382  0.33220991  0.74170682     2.26400
Zr1532     Zr  0.39752970  0.27086910  0.69851979     2.06300
Zr1533     Zr  0.40778083  0.30173339  0.82995142     2.10000
Zr1534     Zr  0.44239579  0.27762811  0.77215931     1.78800
O1535       O  0.39541685  0.32450581  0.86718983    -0.93900
O1536       O  0.45855741  0.26272144  0.72771084    -0.41700
O1537       O  0.43954357  0.31258324  0.78855998    -0.78400
O1538       O  0.43568320  0.29798694  0.72525868    -0.97100
O1539       O  0.39386307  0.30560761  0.71343736    -0.90400
O1540       O  0.40001094  0.32137059  0.78374579    -0.93200
C1541       C  0.41317661  0.21770383  0.80061154     1.00500
C1542       C  0.35461857  0.25052309  0.86250434     1.13500
C1543       C  0.35509422  0.21086348  0.70501280     1.04300
O1544       O  0.41596488  0.25372311  0.66113044    -0.95400
O1545       O  0.42273291  0.29912255  0.65578444    -0.91100
O1546       O  0.43625143  0.33660728  0.67908096    -0.84300
C1547       C  0.43289639  0.32226819  0.65367878     1.10900
O1548       O  0.31956523  0.26395110  0.75561932    -0.97300
Zr1549     Zr  0.36270070  0.29539808  0.75493496     1.88900
O1550       O  0.41552426  0.36086226  0.74000568    -0.74000
O1551       O  0.36862032  0.26885575  0.65559337    -0.53300
O1552       O  0.34132283  0.29719066  0.70427087    -0.97900
O1553       O  0.34031322  0.30310037  0.79924390    -0.55100
O1554       O  0.37431578  0.33813006  0.74817887    -0.74500
C1555       C  0.39422810  0.35861925  0.74427505     0.97800
O1556       O  0.47177926  0.36455037  0.72414398    -0.63300
O1557       O  0.43031935  0.29643157  0.87635060    -0.58100
O1558       O  0.45756749  0.36009834  0.78509210    -0.94800
O1559       O  0.44115901  0.34473556  0.83711770    -0.93200
O1560       O  0.46979766  0.28618442  0.82047780    -0.93600
O1561       O  0.48502484  0.30760810  0.76029636    -0.92400
C1562       C  0.45697944  0.36191515  0.81757908     1.16700
H1563       H  0.41278644  0.25878775  0.83301309     0.32600
H1564       H  0.44894847  0.30314874  0.70940126     0.43500
H1565       H  0.40036773  0.33542393  0.79357572     0.37000
H1566       H  0.34897618  0.24877794  0.72669396     0.33500
H1567       H  0.46799588  0.25645598  0.74004524     0.25300
H1568       H  0.37392446  0.26449563  0.63425652     0.31200
H1569       H  0.35436381  0.30633409  0.68725483     0.37100
H1570       H  0.46247825  0.27089051  0.83389663     0.31600
H1571       H  0.44710096  0.30284715  0.86724072     0.30500
H1572       H  0.39923916  0.32144505  0.89050356     0.32100
H1573       H  0.33106948  0.30960390  0.78695414     0.31100
H1574       H  0.48496101  0.32304879  0.75634170     0.35100
H1575       H  0.47830016  0.35661894  0.70894401     0.27800
H1576       H  0.33863025  0.18922465  0.79367929     0.32100
H1577       H  0.31862985  0.25175077  0.77227275     0.34900
H1578       H  0.43198077  0.30849827  0.89374949     0.27500
H1579       H  0.46887321  0.37544501  0.70916349     0.40400
H1580       H  0.43378574  0.26341194  0.66572242     0.30500
H1581       H  0.44406778  0.24794093  0.71867726     0.38100
H1582       H  0.35304264  0.31726158  0.81205622     0.29900
H1583       H  0.35280150  0.25415731  0.66131163     0.30000
H1584       H  0.32286554  0.20190835  0.78770201     0.30200
Zr1585     Zr  0.50766085  0.95102315  0.11931451     2.17500
O1586       O  0.50669974  0.98685156  0.14042603    -0.52100
O1587       O  0.46434579  0.93181776  0.13511195    -0.75300
O1588       O  0.50010323  0.97321752  0.07344493    -0.82100
O1589       O  0.53809491  0.94699815  0.20176841    -0.83800
O1590       O  0.50344970  0.95849144  0.02213260    -0.79500
O1591       O  0.52373152  0.96909343  0.17454624    -0.91100
O1592       O  0.44590921  0.89151651  0.12180044    -0.77100
O1593       O  0.48832928  0.92128935  0.07595409    -0.86600
O1594       O  0.49619962  0.91242821  0.14516771    -0.86200
O1595       O  0.53853577  0.96308978  0.07591824    -0.73000
O1596       O  0.54504427  0.95308070  0.13846832    -0.85100
Zr1597     Zr  0.54585774  0.89670410  0.07432673     2.26400
Zr1598     Zr  0.51924263  0.93206141  0.03349220     2.06300
Zr1599     Zr  0.53339139  0.91412495  0.16325753     2.10000
Zr1600     Zr  0.47752982  0.88303766  0.10102325     1.78800
O1601       O  0.56513596  0.92181034  0.20486389    -0.93900
O1602       O  0.44823538  0.87042577  0.05423424    -0.41700
O1603       O  0.51495264  0.88474388  0.11844314    -0.78400
O1604       O  0.50749060  0.89281359  0.05660356    -0.97100
O1605       O  0.55725383  0.93536361  0.05026068    -0.90400
O1606       O  0.56373770  0.92552067  0.11982415    -0.93200
C1607       C  0.44540813  0.91035823  0.13309834     1.00500
C1608       C  0.53385706  0.96496561  0.20005752     1.13500
C1609       C  0.49882756  0.97222636  0.04064530     1.04300
O1610       O  0.48584519  0.91389713  0.99246952    -0.95400
O1611       O  0.52545855  0.91049793  0.98862887    -0.91100
O1612       O  0.54726948  0.89410434  0.01126252    -0.84300
C1613       C  0.53777345  0.89962100  0.98596627     1.10900
O1614       O  0.58962971  0.00736303  0.10489915    -0.97300
Zr1615     Zr  0.57538029  0.96418701  0.09509643     1.88900
O1616       O  0.59071607  0.91429002  0.07388715    -0.74000
O1617       O  0.54843945  0.96337691  0.99504757    -0.53300
O1618       O  0.59530376  0.98658394  0.04336736    -0.97900
O1619       O  0.60600198  0.98378701  0.13976833    -0.55100
O1620       O  0.60775873  0.95455528  0.08716183    -0.74500
C1621       C  0.60923171  0.93551696  0.08033684     0.97800
O1622       O  0.53737389  0.85795779  0.04925315    -0.63300
O1623       O  0.50208629  0.88978598  0.20526723    -0.58100
O1624       O  0.54978097  0.87041060  0.11586220    -0.94800
O1625       O  0.54369715  0.88119417  0.16867382    -0.93200
O1626       O  0.45731335  0.85515921  0.14831677    -0.93600
O1627       O  0.46292246  0.84002016  0.08950425    -0.92400
C1628       C  0.54874393  0.86814080  0.14840530     1.16700
H1629       H  0.48524437  0.90917959  0.16421415     0.32600
H1630       H  0.50039766  0.88060989  0.03911288     0.43500
H1631       H  0.57743884  0.92509640  0.13008330     0.37000
H1632       H  0.54283499  0.97882899  0.06667872     0.33500
H1633       H  0.45550435  0.86551962  0.03563436     0.25300
H1634       H  0.53900363  0.96141316  0.97395440     0.31200
H1635       H  0.61294738  0.99600641  0.04924030     0.37100
H1636       H  0.43960618  0.84686027  0.14278350     0.31600
H1637       H  0.49340802  0.87312920  0.19552888     0.30500
H1638       H  0.55627877  0.91537098  0.22663472     0.32100
H1639       H  0.62162543  0.99430723  0.12766600     0.31100
H1640       H  0.47141833  0.83991981  0.06833205     0.35100
H1641       H  0.55232310  0.85687609  0.05328969     0.27800
H1642       H  0.49020533  0.98408536  0.13461504     0.32100
H1643       H  0.57555762  0.00959248  0.09928401     0.34900
H1644       H  0.51122620  0.88855818  0.22494885     0.27500
H1645       H  0.52460904  0.84514226  0.06387077     0.40400
H1646       H  0.47091715  0.90947095  0.00597678     0.30500
H1647       H  0.43385243  0.85499376  0.06193548     0.38100
H1648       H  0.60808978  0.97056180  0.14973294     0.29900
H1649       H  0.55152647  0.97910931  0.00477801     0.30000
H1650       H  0.51818023  0.00064575  0.12582913     0.30200
Zr1651     Zr  0.55960768  0.05694252  0.38282030     2.17500
O1652       O  0.52142748  0.02207741  0.36269326    -0.52100
O1653       O  0.53419399  0.07506678  0.36935157    -0.75300
O1654       O  0.53134241  0.03306027  0.42845012    -0.82100
O1655       O  0.59345212  0.06095871  0.29914638    -0.83800
O1656       O  0.54902265  0.04912933  0.47938958    -0.79500
O1657       O  0.55806014  0.03766259  0.32823832    -0.91100
O1658       O  0.55560991  0.11534013  0.38315435    -0.77100
O1659       O  0.57007901  0.08674477  0.42639061    -0.86600
O1660       O  0.58533070  0.09573327  0.35650394    -0.86200
O1661       O  0.57971411  0.04596004  0.42582256    -0.73000
O1662       O  0.59490561  0.05582981  0.36208809    -0.85100
Zr1663     Zr  0.65245210  0.11324098  0.42431234     2.26400
Zr1664     Zr  0.59129196  0.07696368  0.46829923     2.06300
Zr1665     Zr  0.62088370  0.09481716  0.33656992     2.10000
Zr1666     Zr  0.59669125  0.12518354  0.40080530     1.78800
O1667       O  0.64460364  0.08819518  0.29317220    -0.93900
O1668       O  0.58350398  0.14169196  0.44705499    -0.41700
O1669       O  0.63233242  0.12435173  0.38126268    -0.78400
O1670       O  0.61792783  0.11627235  0.44430531    -0.97100
O1671       O  0.62626873  0.07459037  0.44960709    -0.90400
O1672       O  0.64123879  0.08446267  0.37896617    -0.93200
C1673       C  0.53634226  0.09630131  0.37200744     1.00500
C1674       C  0.57184501  0.04211975  0.30191905     1.13500
C1675       C  0.53100246  0.03424376  0.46106185     1.04300
O1676       O  0.57667801  0.09639457  0.50816680    -0.95400
O1677       O  0.62046452  0.09915265  0.51175654    -0.91100
O1678       O  0.65792975  0.11980308  0.48648712    -0.84300
C1679       C  0.64362866  0.11317847  0.51265463     1.10900
O1680       O  0.58566827  0.00234813  0.40016731    -0.97300
Zr1681     Zr  0.61536304  0.04578513  0.40455189     1.88900
O1682       O  0.68029292  0.09620621  0.42340925    -0.74000
O1683       O  0.58785842  0.04685221  0.51004535    -0.53300
O1684       O  0.61848919  0.02330171  0.45283264    -0.97900
O1685       O  0.62286807  0.02730452  0.35499194    -0.55100
O1686       O  0.65770898  0.05630484  0.40801418    -0.74500
C1687       C  0.67808423  0.07546540  0.41501946     0.97800
O1688       O  0.68643524  0.15342590  0.43950723    -0.63300
O1689       O  0.61202884  0.11780486  0.29462150    -0.58100
O1690       O  0.68103648  0.13998338  0.38230471    -0.94800
O1691       O  0.66400499  0.12744492  0.32985369    -0.93200
O1692       O  0.60609335  0.15188814  0.35164281    -0.93600
O1693       O  0.62320822  0.16834379  0.41376181    -0.92400
C1694       C  0.68203874  0.14118159  0.34976390     1.16700
H1695       H  0.57697745  0.09863168  0.33806808     0.32600
H1696       H  0.62309722  0.12866032  0.46153768     0.43500
H1697       H  0.65529486  0.08536529  0.36792416     0.37000
H1698       H  0.56892534  0.03000143  0.43519506     0.33500
H1699       H  0.57309651  0.14737120  0.43606089     0.25300
H1700       H  0.57747250  0.04751453  0.52849610     0.31200
H1701       H  0.61414396  0.02974488  0.47300563     0.37100
H1702       H  0.59631591  0.16004414  0.35506650     0.31600
H1703       H  0.62602747  0.12434608  0.27858770     0.30500
H1704       H  0.64426359  0.09743442  0.27302836     0.32100
H1705       H  0.63019416  0.01783485  0.36424138     0.31100
H1706       H  0.63689004  0.16903504  0.42707995     0.35100
H1707       H  0.67920324  0.16111163  0.45383550     0.27800
H1708       H  0.50799196  0.02401735  0.37244757     0.32100
H1709       H  0.57528409  0.00101847  0.38042601     0.34900
H1710       H  0.59805844  0.10522384  0.28127816     0.27500
H1711       H  0.69703857  0.15042064  0.45502828     0.40400
H1712       H  0.57281174  0.08657321  0.52927877     0.30500
H1713       H  0.57192214  0.12726604  0.46054499     0.38100
H1714       H  0.63654863  0.04117897  0.34293520     0.29900
H1715       H  0.57749890  0.03079253  0.49904120     0.30000
H1716       H  0.52015108  0.00752135  0.37410781     0.30200
Zr1717     Zr  0.80818093  0.10094901  0.04608952     2.17500
O1718       O  0.80827659  0.13741022  0.02552421    -0.52100
O1719       O  0.85139785  0.12679152  0.03191475    -0.75300
O1720       O  0.81350748  0.12957170  0.09216892    -0.82100
O1721       O  0.77592927  0.06543374  0.96408026    -0.83800
O1722       O  0.81555093  0.11325359  0.14281032    -0.79500
O1723       O  0.78986435  0.10171078  0.99147917    -0.91100
O1724       O  0.87212402  0.10731599  0.04625797    -0.77100
O1725       O  0.82967521  0.09162930  0.08781806    -0.86600
O1726       O  0.82035879  0.07496476  0.01822616    -0.86200
O1727       O  0.77928153  0.08180514  0.09174480    -0.73000
O1728       O  0.77125190  0.06511796  0.02833901    -0.85100
Zr1729     Zr  0.77422844  0.00935920  0.09021944     2.26400
Zr1730     Zr  0.80065794  0.07109656  0.13236385     2.06300
Zr1731     Zr  0.78326835  0.03862606  0.00170176     2.10000
Zr1732     Zr  0.84098188  0.06511475  0.06069515     1.78800
O1733       O  0.74994564  0.01559275  0.96175668    -0.93900
O1734       O  0.87386983  0.07686719  0.10202948    -0.41700
O1735       O  0.80375890  0.02865794  0.04471517    -0.78400
O1736       O  0.81262002  0.04446228  0.10685072    -0.97100
O1737       O  0.76283855  0.03608247  0.11643651    -0.90400
O1738       O  0.75454733  0.01968880  0.04666604    -0.93200
C1739       C  0.87131468  0.12610132  0.03534486     1.00500
C1740       C  0.77928287  0.08727126  0.96614463     1.13500
C1741       C  0.81680997  0.13051044  0.12461330     1.04300
O1742       O  0.83743518  0.08375708  0.16630993    -0.95400
O1743       O  0.78858954  0.04111139  0.17655116    -0.91100
O1744       O  0.77101237  0.00338510  0.15230720    -0.84300
C1745       C  0.77790748  0.01787301  0.17819270     1.10900
O1746       O  0.72857868  0.07522059  0.06680738    -0.97300
Zr1747     Zr  0.74281952  0.04604135  0.07368386     1.88900
O1748       O  0.72956474  0.98094065  0.09174746    -0.74000
O1749       O  0.77951462  0.08011542  0.17718952    -0.53300
O1750       O  0.72511852  0.04681912  0.12849426    -0.97900
O1751       O  0.71046992  0.03741914  0.03268628    -0.55100
O1752       O  0.71176501  0.00398433  0.08138793    -0.74500
C1753       C  0.71076634  0.98355344  0.08672123     0.97800
O1754       O  0.78870811  0.98321813  0.11409042    -0.63300
O1755       O  0.81338323  0.04474674  0.95817893    -0.58100
O1756       O  0.76808498  0.97832093  0.04888984    -0.94800
O1757       O  0.77292554  0.99530969  0.99623816    -0.93200
O1758       O  0.85680873  0.05922815  0.00706328    -0.93600
O1759       O  0.85654505  0.03722714  0.07002307    -0.92400
C1760       C  0.76837155  0.97722993  0.01625206     1.16700
H1761       H  0.83073504  0.08304496  0.99881814     0.32600
H1762       H  0.82048505  0.03960510  0.12365189     0.43500
H1763       H  0.74086477  0.00553423  0.03677010     0.37000
H1764       H  0.77428658  0.09257085  0.10182268     0.33500
H1765       H  0.88919701  0.08520669  0.08853994     0.25300
H1766       H  0.76405393  0.06461437  0.18121115     0.31200
H1767       H  0.73522374  0.06384359  0.13661029     0.37100
H1768       H  0.87439588  0.07186429  0.00704569     0.31600
H1769       H  0.81654697  0.03105735  0.96136706     0.30500
H1770       H  0.75810150  0.01564807  0.94016402     0.32100
H1771       H  0.71014512  0.02466769  0.01768792     0.31100
H1772       H  0.84553285  0.02248316  0.05660600     0.35100
H1773       H  0.77380461  0.96701620  0.11689836     0.27800
H1774       H  0.82365001  0.15146789  0.03411502     0.32100
H1775       H  0.74306956  0.09029925  0.05839610     0.34900
H1776       H  0.80430478  0.04109975  0.93639353     0.27500
H1777       H  0.79813576  0.98094456  0.09568465     0.40400
H1778       H  0.83201108  0.08283591  0.19021472     0.30500
H1779       H  0.87381583  0.09004621  0.11559334     0.38100
H1780       H  0.69500241  0.02886205  0.04582687     0.29900
H1781       H  0.78935140  0.08259294  0.19802802     0.30000
H1782       H  0.79497784  0.13802988  0.03816908     0.30200
Zr1783     Zr  0.75201836  0.15728001  0.78811490     2.17500
O1784       O  0.78884859  0.15746275  0.80780192    -0.52100
O1785       O  0.77544656  0.19993436  0.80683487    -0.75300
O1786       O  0.78255473  0.16673044  0.74352160    -0.82100
O1787       O  0.71622402  0.12113170  0.86783204    -0.83800
O1788       O  0.76715634  0.16949707  0.69247952    -0.79500
O1789       O  0.75254340  0.13630940  0.83992545    -0.91100
O1790       O  0.75448795  0.21928766  0.79309556    -0.77100
O1791       O  0.74237764  0.17941818  0.74818329    -0.86600
O1792       O  0.72397617  0.16628064  0.81672630    -0.86200
O1793       O  0.73457101  0.13004402  0.74035116    -0.73000
O1794       O  0.71697808  0.11877322  0.80237808    -0.85100
Zr1795     Zr  0.66035154  0.12072932  0.74080464     2.26400
Zr1796     Zr  0.72383596  0.15220506  0.70131783     2.06300
Zr1797     Zr  0.68865078  0.12763380  0.83024663     2.10000
Zr1798     Zr  0.71340614  0.18724270  0.77566215     1.78800
O1799       O  0.66541300  0.09065518  0.86376847    -0.93900
O1800       O  0.72422082  0.21749738  0.73074088    -0.41700
O1801       O  0.67821627  0.14835088  0.78838015    -0.78400
O1802       O  0.69453608  0.16055469  0.72747688    -0.97100
O1803       O  0.68937255  0.11274412  0.71375472    -0.90400
O1804       O  0.67104299  0.10059475  0.78303164    -0.93200
C1805       C  0.77363236  0.21928076  0.80455521     1.00500
C1806       C  0.73833682  0.12503621  0.86517102     1.13500
C1807       C  0.78438511  0.17106956  0.71140082     1.04300
O1808       O  0.73379635  0.18904305  0.66935968    -0.95400
O1809       O  0.69524370  0.14276645  0.65581372    -0.91100
O1810       O  0.65683963  0.12138656  0.67818131    -0.84300
C1811       C  0.67194827  0.13073566  0.65307774     1.10900
O1812       O  0.73022814  0.07983281  0.76310639    -0.97300
Zr1813     Zr  0.69928940  0.09177926  0.75523219     1.88900
O1814       O  0.63330500  0.07597594  0.73654560    -0.74000
O1815       O  0.73584427  0.13381892  0.65614683    -0.53300
O1816       O  0.70254922  0.07538223  0.70050267    -0.97900
O1817       O  0.68984916  0.05974787  0.79696664    -0.55100
O1818       O  0.65761013  0.05933799  0.74511669    -0.74500
C1819       C  0.63669552  0.05758317  0.73998096     0.97800
O1820       O  0.62989405  0.13107364  0.72133347    -0.63300
O1821       O  0.69187026  0.15455563  0.87685514    -0.58100
O1822       O  0.62960273  0.11430143  0.78309856    -0.94800
O1823       O  0.64594643  0.11875900  0.83612672    -0.93200
O1824       O  0.70532082  0.20269732  0.82807072    -0.93600
O1825       O  0.68357200  0.20099456  0.77307467    -0.92400
C1826       C  0.62826636  0.11486241  0.81572890     1.16700
H1827       H  0.73125201  0.17601174  0.83706274     0.32600
H1828       H  0.68935244  0.16849907  0.71137598     0.43500
H1829       H  0.65698434  0.08619389  0.79187770     0.37000
H1830       H  0.74619927  0.12638241  0.73010406     0.33500
H1831       H  0.72729593  0.23257095  0.74267149     0.25300
H1832       H  0.72342876  0.11624032  0.65683075     0.31200
H1833       H  0.72004640  0.08015512  0.69828151     0.37100
H1834       H  0.72141748  0.21211581  0.83949466     0.31600
H1835       H  0.67501117  0.15152198  0.88040946     0.30500
H1836       H  0.66632102  0.09650117  0.88741703     0.32100
H1837       H  0.68228565  0.04433495  0.78375126     0.31100
H1838       H  0.67238769  0.19138848  0.75429502     0.35100
H1839       H  0.63899317  0.14598449  0.70730289     0.27800
H1840       H  0.80279737  0.17369940  0.80188688     0.32100
H1841       H  0.74181106  0.09169871  0.77988001     0.34900
H1842       H  0.69526107  0.14751172  0.89723537     0.27500
H1843       H  0.61906018  0.11806203  0.70522159     0.40400
H1844       H  0.75185890  0.19932723  0.67065127     0.30500
H1845       H  0.74062245  0.22103547  0.72292552     0.38100
H1846       H  0.67621320  0.05888567  0.81062159     0.29900
H1847       H  0.73270400  0.13983071  0.63452241     0.30000
H1848       H  0.79066775  0.14572426  0.79303467     0.30200
Zr1849     Zr  0.71348464  0.90991482  0.45207880     2.17500
O1850       O  0.67955250  0.87174714  0.47388635    -0.52100
O1851       O  0.73367599  0.88739881  0.46972929    -0.75300
O1852       O  0.69084887  0.87945526  0.40716022    -0.82100
O1853       O  0.71304524  0.94538045  0.53169123    -0.83800
O1854       O  0.70879714  0.89516782  0.35615966    -0.79500
O1855       O  0.69268158  0.90855624  0.50503335    -0.91100
O1856       O  0.77435186  0.90960216  0.45810231    -0.77100
O1857       O  0.74536448  0.92023143  0.41177917    -0.86600
O1858       O  0.75098769  0.93812758  0.48010209    -0.86200
O1859       O  0.70276873  0.92731767  0.40539758    -0.73000
O1860       O  0.70985967  0.94480579  0.46752143    -0.85100
Zr1861     Zr  0.76880035  0.00166538  0.40601015     2.26400
Zr1862     Zr  0.73544456  0.93826454  0.36568774     2.06300
Zr1863     Zr  0.74749425  0.97314499  0.49492287     2.10000
Zr1864     Zr  0.78251236  0.94926829  0.43867755     1.78800
O1865       O  0.73517393  0.99667318  0.53066001    -0.93900
O1866       O  0.80222725  0.93493257  0.39874659    -0.41700
O1867       O  0.77933204  0.98434110  0.45343857    -0.78400
O1868       O  0.77361157  0.96729374  0.39115156    -0.97100
O1869       O  0.73138086  0.97306912  0.37920657    -0.90400
O1870       O  0.73779941  0.99070441  0.44829476    -0.93200
C1871       C  0.75529915  0.89021117  0.46853771     1.00500
C1872       C  0.69549493  0.92299781  0.52984345     1.13500
C1873       C  0.69313032  0.87778463  0.37479810     1.04300
O1874       O  0.75419112  0.92147957  0.32820830    -0.95400
O1875       O  0.75982825  0.96657349  0.32233037    -0.91100
O1876       O  0.76998492  0.00409177  0.34321225    -0.84300
C1877       C  0.76733740  0.98928219  0.31873547     1.10900
O1878       O  0.65697361  0.93362671  0.42709880    -0.97300
Zr1879     Zr  0.70051160  0.96291017  0.42082478     1.88900
O1880       O  0.75167719  0.02910780  0.40346929    -0.74000
O1881       O  0.70572772  0.93470545  0.32306454    -0.53300
O1882       O  0.68028845  0.95853154  0.36633798    -0.97900
O1883       O  0.67817342  0.97271323  0.46267476    -0.55100
O1884       O  0.71050177  0.00481843  0.41078547    -0.74500
C1885       C  0.72982899  0.02572802  0.40665764     0.97800
O1886       O  0.80942694  0.02963203  0.38324257    -0.63300
O1887       O  0.76993055  0.96900911  0.54257565    -0.58100
O1888       O  0.79329169  0.03330767  0.44752713    -0.94800
O1889       O  0.77967875  0.01676064  0.50004743    -0.93200
O1890       O  0.80643319  0.96012622  0.49101323    -0.93600
O1891       O  0.82523870  0.97701010  0.42381350    -0.92400
C1892       C  0.79383114  0.03473989  0.48023992     1.16700
H1893       H  0.75378692  0.93090598  0.50019126     0.32600
H1894       H  0.78669882  0.97238795  0.37494227     0.43500
H1895       H  0.73746852  0.00460170  0.45754692     0.37000
H1896       H  0.68703485  0.91566239  0.39544075     0.33500
H1897       H  0.81116601  0.92908265  0.41313030     0.25300
H1898       H  0.70814599  0.92602779  0.30377543     0.31200
H1899       H  0.67198981  0.96824209  0.36878177     0.37100
H1900       H  0.81890405  0.95523367  0.48698910     0.31600
H1901       H  0.77400205  0.98325704  0.55729999     0.30500
H1902       H  0.73817945  0.99337907  0.55429807     0.32100
H1903       H  0.67021711  0.98018128  0.44945632     0.31100
H1904       H  0.82877076  0.99307699  0.43281825     0.35100
H1905       H  0.81124002  0.04607974  0.38498045     0.27800
H1906       H  0.68226942  0.85855567  0.46525360     0.32100
H1907       H  0.65638801  0.92058940  0.44172314     0.34900
H1908       H  0.75744685  0.95485526  0.55569181     0.27500
H1909       H  0.82108622  0.02962425  0.40015830     0.40400
H1910       H  0.75616817  0.90966442  0.34245774     0.30500
H1911       H  0.78860644  0.91989750  0.38869211     0.38100
H1912       H  0.69108926  0.98640808  0.47599668     0.29900
H1913       H  0.68951817  0.92276405  0.33256665     0.30000
H1914       H  0.66472207  0.86944050  0.46187452     0.30200
Zr1915     Zr  0.60250521  0.85440361  0.71314339     2.17500
O1916       O  0.63992347  0.85540993  0.69427306    -0.52100
O1917       O  0.58367609  0.81083691  0.70036067    -0.75300
O1918       O  0.62546151  0.84876177  0.75900759    -0.82100
O1919       O  0.59842513  0.88384206  0.62939768    -0.83800
O1920       O  0.61191056  0.85387036  0.81033985    -0.79500
O1921       O  0.62202039  0.87226696  0.65853930    -0.91100
O1922       O  0.54337758  0.79200122  0.71483198    -0.77100
O1923       O  0.57322681  0.83588889  0.75761660    -0.86600
O1924       O  0.56328089  0.84111823  0.68742504    -0.86200
O1925       O  0.61405757  0.88570787  0.75551838    -0.73000
O1926       O  0.60317745  0.89024917  0.69246953    -0.85100
Zr1927     Zr  0.54707438  0.89234290  0.75458395     2.26400
Zr1928     Zr  0.58346498  0.86737873  0.79872483     2.06300
Zr1929     Zr  0.56428274  0.87730375  0.66698212     2.10000
Zr1930     Zr  0.53439226  0.82382552  0.73296115     1.78800
O1931       O  0.57140254  0.90682728  0.62243539    -0.93900
O1932       O  0.52142394  0.79769785  0.78315746    -0.41700
O1933       O  0.53550525  0.86020659  0.71269015    -0.78400
O1934       O  0.54375939  0.85484730  0.77557372    -0.97100
O1935       O  0.58587433  0.90438073  0.77924503    -0.90400
O1936       O  0.57564906  0.90899060  0.70852852    -0.93200
C1937       C  0.56238332  0.79167685  0.70343627     1.00500
C1938       C  0.61764181  0.88162865  0.63223354     1.13500
C1939       C  0.62545257  0.84895502  0.79169628     1.04300
O1940       O  0.56320834  0.83300539  0.83785960    -0.95400
O1941       O  0.56443496  0.87796906  0.84274828    -0.91100
O1942       O  0.54417749  0.89514256  0.81753105    -0.84300
C1943       C  0.55160629  0.88838154  0.84388710     1.10900
O1944       O  0.65736320  0.93505197  0.72102241    -0.97300
Zr1945     Zr  0.61454415  0.92135973  0.73406399     1.88900
O1946       O  0.56491059  0.93719584  0.75199247    -0.74000
O1947       O  0.61593688  0.89401964  0.83790969    -0.53300
O1948       O  0.63599044  0.94017496  0.78695899    -0.97900
O1949       O  0.63515952  0.95013565  0.68784923    -0.55100
O1950       O  0.60565202  0.95395756  0.74112843    -0.74500
C1951       C  0.58647429  0.95557765  0.74635651     0.97800
O1952       O  0.50778361  0.88698686  0.77364129    -0.63300
O1953       O  0.53976242  0.84460416  0.62686589    -0.58100
O1954       O  0.51915690  0.89227723  0.71177426    -0.94800
O1955       O  0.52937698  0.88415412  0.65975101    -0.93200
O1956       O  0.50405461  0.79916956  0.69010736    -0.93600
O1957       O  0.49129611  0.81030675  0.74306293    -0.92400
C1958       C  0.51594625  0.88897925  0.67943736     1.16700
H1959       H  0.56000056  0.82963221  0.66921563     0.32600
H1960       H  0.53164790  0.84817863  0.79318190     0.43500
H1961       H  0.57517748  0.92235935  0.69745587     0.37000
H1962       H  0.63007765  0.89069896  0.76478677     0.33500
H1963       H  0.50966215  0.78123828  0.77434663     0.25300
H1964       H  0.61239139  0.90713267  0.84389752     0.31200
H1965       H  0.65347022  0.95043690  0.78068133     0.37100
H1966       H  0.50392822  0.81114248  0.67401063     0.31600
H1967       H  0.52313954  0.84255374  0.62829693     0.30500
H1968       H  0.56643645  0.89723348  0.60104909     0.32100
H1969       H  0.64283361  0.96652178  0.69851894     0.31100
H1970       H  0.49113423  0.82530902  0.74986752     0.35100
H1971       H  0.50169027  0.87414496  0.79137016     0.27800
H1972       H  0.63909580  0.84032449  0.70297595     0.32100
H1973       H  0.65987467  0.92136633  0.72767612     0.34900
H1974       H  0.54583001  0.85184073  0.60409449     0.27500
H1975       H  0.51173099  0.90224073  0.78586141     0.40400
H1976       H  0.56891550  0.84006146  0.86082777     0.30500
H1977       H  0.53596045  0.79653796  0.78985219     0.38100
H1978       H  0.62166202  0.94921971  0.67385874     0.29900
H1979       H  0.61267357  0.88438016  0.85910207     0.30000
H1980       H  0.65345951  0.86894721  0.70708475     0.30200
Zr1981     Zr  0.16962952  0.90969918  0.94506222     2.17500
O1982       O  0.16409391  0.86901036  0.95399373    -0.52100
O1983       O  0.12714650  0.88761138  0.96545960    -0.75300
O1984       O  0.18662383  0.90544671  0.99913958    -0.82100
O1985       O  0.16368407  0.89973833  0.84740079    -0.83800
O1986       O  0.20432266  0.94189910  0.02707388    -0.79500
O1987       O  0.16253118  0.88146682  0.89777773    -0.91100
O1988       O  0.10984920  0.91151045  0.96152736    -0.77100
O1989       O  0.16229233  0.93792696  0.97619369    -0.86600
O1990       O  0.14728508  0.92122464  0.90780353    -0.86200
O1991       O  0.20986604  0.94355290  0.95826147    -0.73000
O1992       O  0.19555216  0.92772058  0.89617266    -0.85100
Zr1993     Zr  0.20765514  0.00275844  0.90332523     2.26400
Zr1994     Zr  0.20214980  0.97199696  0.98920652     2.06300
Zr1995     Zr  0.17356068  0.94066571  0.86024628     2.10000
Zr1996     Zr  0.14089436  0.95007485  0.93795100     1.78800
O1997       O  0.19404734  0.93983280  0.80800500    -0.93900
O1998       O  0.12919154  0.96228067  0.99037340    -0.41700
O1999       O  0.16700382  0.96989057  0.88987381    -0.78400
O2000       O  0.18012590  0.98396444  0.95100466    -0.97100
O2001       O  0.22862144  0.99005388  0.94111452    -0.90400
O2002       O  0.21366941  0.97368122  0.87281243    -0.93200
C2003       C  0.10895884  0.89133881  0.96874781     1.00500
C2004       C  0.16087864  0.88156559  0.86507795     1.13500
C2005       C  0.19853396  0.91924302  0.02444951     1.04300
O2006       O  0.17996135  0.97156424  0.04023807    -0.95400
O2007       O  0.21150068  0.01436333  0.99999081    -0.91100
O2008       O  0.21466792  0.03223996  0.94843651    -0.84300
C2009       C  0.21470672  0.03254508  0.98125532     1.10900
O2010       O  0.24514953  0.92907572  0.90606893    -0.97300
Zr2011     Zr  0.23513670  0.96159120  0.90975335     1.88900
O2012       O  0.25269900  0.02845613  0.90192434    -0.74000
O2013       O  0.24227691  0.99481604  0.01588123    -0.53300
O2014       O  0.26721613  0.96543065  0.94822348    -0.97900
O2015       O  0.25178287  0.96387819  0.85283884    -0.55100
O2016       O  0.26860035  0.00327240  0.90645026    -0.74500
C2017       C  0.27082693  0.02449051  0.90416738     0.97800
O2018       O  0.20157482  0.03496278  0.87960274    -0.63300
O2019       O  0.13350333  0.92156683  0.83280644    -0.58100
O2020       O  0.20586503  0.00709817  0.84100345    -0.94800
O2021       O  0.17526409  0.97073608  0.82137926    -0.93200
O2022       O  0.10786005  0.93575216  0.89627866    -0.93600
O2023       O  0.12491731  0.97777115  0.93037694    -0.92400
C2024       C  0.19173006  0.99302930  0.81715000     1.16700
H2025       H  0.13201569  0.90723708  0.90066021     0.32600
H2026       H  0.17597861  0.99498091  0.96148477     0.43500
H2027       H  0.22310884  0.98051286  0.85235648     0.37000
H2028       H  0.21984079  0.93878616  0.97085556     0.33500
H2029       H  0.11104700  0.95369104  0.98991004     0.25300
H2030       H  0.24064001  0.98695442  0.03828750     0.31200
H2031       H  0.28252927  0.97364292  0.93469542     0.37100
H2032       H  0.09494998  0.91958764  0.90453591     0.31600
H2033       H  0.12749089  0.93318162  0.83629503     0.30500
H2034       H  0.18194042  0.93633845  0.78966217     0.32100
H2035       H  0.24580592  0.94675558  0.84586463     0.31100
H2036       H  0.13871343  0.99264519  0.92024591     0.35100
H2037       H  0.18482866  0.03072737  0.88668429     0.27800
H2038       H  0.15434010  0.86276477  0.97515665     0.32100
H2039       H  0.23650301  0.91821442  0.92557933     0.34900
H2040       H  0.13707902  0.92251289  0.80811177     0.27500
H2041       H  0.21272527  0.05012621  0.89210757     0.40400
H2042       H  0.19260470  0.97827298  0.05832251     0.30500
H2043       H  0.13315836  0.95410178  0.00874201     0.38100
H2044       H  0.26962935  0.97095113  0.85631887     0.29900
H2045       H  0.25297017  0.99074930  0.00226040     0.30000
H2046       H  0.18047707  0.87139656  0.95961522     0.30200
Zr2047     Zr  0.22729985  0.85791177  0.20998740     2.17500
O2048       O  0.18878990  0.85755893  0.20075762    -0.52100
O2049       O  0.20360845  0.81438909  0.19365066    -0.75300
O2050       O  0.22403474  0.87123641  0.15259332    -0.82100
O2051       O  0.21547660  0.85395463  0.30705921    -0.83800
O2052       O  0.26035298  0.88452300  0.12521963    -0.79500
O2053       O  0.19777352  0.85161361  0.25570233    -0.91100
O2054       O  0.22524242  0.79569247  0.20743421    -0.77100
O2055       O  0.25415244  0.84612429  0.18381228    -0.86600
O2056       O  0.23756847  0.83812752  0.25298522    -0.86200
O2057       O  0.26314941  0.89577576  0.19227461    -0.73000
O2058       O  0.24653794  0.88764617  0.25465342    -0.85100
Zr2059     Zr  0.31991285  0.89357816  0.25458184     2.26400
Zr2060     Zr  0.28988648  0.88335963  0.16611822     2.06300
Zr2061     Zr  0.25765339  0.86788633  0.29668174     2.10000
Zr2062     Zr  0.26479982  0.82698416  0.22766445     1.78800
O2063       O  0.25431853  0.89673056  0.33428752    -0.93900
O2064       O  0.27356057  0.80934186  0.17812052    -0.41700
O2065       O  0.28488290  0.85588592  0.27277853    -0.78400
O2066       O  0.30044306  0.86354642  0.20988038    -0.97100
O2067       O  0.30944014  0.91298344  0.21066806    -0.90400
O2068       O  0.29293465  0.90509683  0.28005886    -0.93200
C2069       C  0.20615596  0.79540901  0.19566367     1.00500
C2070       C  0.19734083  0.85026129  0.28852196     1.13500
C2071       C  0.23805067  0.88044726  0.12645133     1.04300
O2072       O  0.28590803  0.85421238  0.12248583    -0.95400
O2073       O  0.33301960  0.89235092  0.15947120    -0.91100
O2074       O  0.35006208  0.89774893  0.21221780    -0.84300
C2075       C  0.35099728  0.89647532  0.17960344     1.10900
O2076       O  0.25062191  0.93548488  0.23591341    -0.97300
Zr2077     Zr  0.28257165  0.92440434  0.23701517     1.88900
O2078       O  0.34798990  0.93793720  0.25657332    -0.74000
O2079       O  0.31162265  0.91671479  0.12612276    -0.53300
O2080       O  0.28885068  0.95405980  0.19286411    -0.97900
O2081       O  0.28702054  0.94804146  0.28836294    -0.55100
O2082       O  0.32540562  0.95519010  0.24037139    -0.74500
C2083       C  0.34569767  0.95642404  0.24853506     0.97800
O2084       O  0.34869236  0.88341136  0.28105686    -0.63300
O2085       O  0.24088379  0.83464854  0.33793261    -0.58100
O2086       O  0.32495818  0.89312666  0.31678969    -0.94800
O2087       O  0.28686625  0.87558122  0.34043391    -0.93200
O2088       O  0.24870199  0.79603477  0.27223575    -0.93600
O2089       O  0.29179696  0.81088848  0.24095608    -0.92400
C2090       C  0.31007749  0.88530117  0.34234082     1.16700
H2091       H  0.22297687  0.82398458  0.26168531     0.32600
H2092       H  0.31154872  0.85819065  0.20122280     0.43500
H2093       H  0.30055276  0.91590840  0.29910357     0.37000
H2094       H  0.25922668  0.90533801  0.17703660     0.33500
H2095       H  0.26754369  0.81471460  0.15858965     0.25300
H2096       H  0.32566014  0.92938658  0.13910472     0.31200
H2097       H  0.29300980  0.96925039  0.20540112     0.37100
H2098       H  0.23969717  0.80101869  0.28793753     0.31600
H2099       H  0.25307168  0.82915342  0.33943835     0.30500
H2100       H  0.24989383  0.88854218  0.35676219     0.32100
H2101       H  0.27090161  0.93938061  0.29990711     0.31100
H2102       H  0.30228432  0.82135059  0.25973540     0.35100
H2103       H  0.34346824  0.86661967  0.27318948     0.27800
H2104       H  0.18034242  0.84569288  0.18218260     0.32100
H2105       H  0.23945137  0.92630905  0.25492753     0.34900
H2106       H  0.24191805  0.84251977  0.36017088     0.27500
H2107       H  0.36481461  0.89392378  0.27025060     0.40400
H2108       H  0.30009489  0.86352052  0.10716805     0.30500
H2109       H  0.29161042  0.81846484  0.17541830     0.38100
H2110       H  0.28836617  0.96344917  0.28006548     0.29900
H2111       H  0.31891450  0.91060802  0.10913232     0.30000
H2112       H  0.19318855  0.87371632  0.19110493     0.30200
Zr2113     Zr  0.41734355  0.94576903  0.61692136     2.17500
O2114       O  0.45864405  0.97968575  0.62783581    -0.52100
O2115       O  0.43975265  0.92492411  0.63370764    -0.75300
O2116       O  0.42161361  0.96543110  0.67236069    -0.82100
O2117       O  0.42909008  0.95139236  0.51977196    -0.83800
O2118       O  0.38455212  0.94661355  0.69901845    -0.79500
O2119       O  0.44576869  0.96863241  0.57077691    -0.91100
O2120       O  0.41633673  0.88434383  0.62290551    -0.77100
O2121       O  0.38846797  0.90896956  0.64524198    -0.86600
O2122       O  0.40605009  0.91366836  0.57663393    -0.86200
O2123       O  0.38345414  0.95198376  0.63137497    -0.73000
O2124       O  0.39987371  0.95593450  0.56957835    -0.85100
Zr2125     Zr  0.32444502  0.89258216  0.57234476     2.26400
Zr2126     Zr  0.35468873  0.91488703  0.65995451     2.06300
Zr2127     Zr  0.38708978  0.92268210  0.53073960     2.10000
Zr2128     Zr  0.37659983  0.87720112  0.60399037     1.78800
O2129       O  0.39578857  0.94846844  0.48069396    -0.93900
O2130       O  0.36807179  0.85167900  0.65431700    -0.41700
O2131       O  0.35744351  0.88555019  0.55692803    -0.78400
O2132       O  0.34280381  0.88231233  0.61921364    -0.97100
O2133       O  0.33695908  0.92476486  0.61295617    -0.90400
O2134       O  0.35374803  0.92902438  0.54468319    -0.93200
C2135       C  0.43623869  0.90306933  0.63285136     1.00500
C2136       C  0.44668243  0.96687024  0.53823039     1.13500
C2137       C  0.40744550  0.96333584  0.69733152     1.04300
O2138       O  0.35753152  0.89536734  0.71190245    -0.95400
O2139       O  0.31198559  0.88169582  0.66907416    -0.91100
O2140       O  0.29430760  0.86973580  0.61666397    -0.84300
C2141       C  0.29367924  0.86814036  0.64940490     1.10900
O2142       O  0.39875416  0.00328145  0.58828348    -0.97300
Zr2143     Zr  0.36567824  0.96096747  0.58422629     1.88900
O2144       O  0.29817953  0.91112143  0.57083512    -0.74000
O2145       O  0.32984472  0.92986707  0.68648094    -0.53300
O2146       O  0.36002086  0.98864757  0.62139510    -0.97900
O2147       O  0.36825495  0.97870007  0.52814665    -0.55100
O2148       O  0.32333668  0.95181635  0.57975595    -0.74500
C2149       C  0.30206983  0.93297728  0.57512693     0.97800
O2150       O  0.29429016  0.85365845  0.54735878    -0.63300
O2151       O  0.39923823  0.89543392  0.50452620    -0.58100
O2152       O  0.31961556  0.88848821  0.50948915    -0.94800
O2153       O  0.35773802  0.90417441  0.48624528    -0.93200
O2154       O  0.38614173  0.85636440  0.55945868    -0.93600
O2155       O  0.34614506  0.83407283  0.59846619    -0.92400
C2156       C  0.33448349  0.89389693  0.48397263     1.16700
H2157       H  0.42008998  0.91271024  0.56872563     0.32600
H2158       H  0.33138512  0.86672651  0.62888244     0.43500
H2159       H  0.34688304  0.93250838  0.52479648     0.37000
H2160       H  0.38828284  0.96645606  0.64487905     0.33500
H2161       H  0.37906056  0.84473966  0.65235017     0.25300
H2162       H  0.33645717  0.93471342  0.70982416     0.31200
H2163       H  0.35448528  0.99742483  0.60616232     0.37100
H2164       H  0.40414343  0.86344083  0.56049134     0.31600
H2165       H  0.38396274  0.88193274  0.49474296     0.30500
H2166       H  0.38671924  0.95729328  0.48459335     0.32100
H2167       H  0.38562983  0.99154245  0.52535063     0.31100
H2168       H  0.33256678  0.83387372  0.58550552     0.35100
H2169       H  0.30057166  0.84242551  0.55229624     0.27800
H2170       H  0.46457367  0.97496533  0.64821859     0.32100
H2171       H  0.41049703  0.00296352  0.60475283     0.34900
H2172       H  0.40913419  0.90455534  0.48449972     0.27500
H2173       H  0.27914201  0.84749839  0.56104968     0.40400
H2174       H  0.34038978  0.88414743  0.71896659     0.30500
H2175       H  0.37478196  0.86330788  0.67357317     0.38100
H2176       H  0.35922873  0.98771107  0.53050482     0.29900
H2177       H  0.33449561  0.94535764  0.67454001     0.30000
H2178       H  0.45681419  0.99367452  0.63516878     0.30200
Zr2179     Zr  0.47135241  0.05715581  0.87937105     2.17500
O2180       O  0.47451660  0.02064395  0.86981946    -0.52100
O2181       O  0.51457941  0.07656254  0.86237648    -0.75300
O2182       O  0.45672812  0.03966897  0.82275264    -0.82100
O2183       O  0.47505235  0.04895321  0.97635444    -0.83800
O2184       O  0.44074070  0.06047922  0.79623099    -0.79500
O2185       O  0.47748855  0.03386853  0.92479385    -0.91100
O2186       O  0.53300253  0.11722761  0.87330157    -0.77100
O2187       O  0.48210821  0.09530273  0.85241547    -0.86600
O2188       O  0.49219759  0.08801166  0.92114548    -0.86200
O2189       O  0.43252709  0.05366951  0.86332163    -0.73000
O2190       O  0.44286857  0.04695405  0.92562569    -0.85100
Zr2191     Zr  0.43545970  0.11323640  0.92506190     2.26400
Zr2192     Zr  0.44377841  0.09230277  0.83649972     2.06300
Zr2193     Zr  0.46358158  0.07893763  0.96629196     2.10000
Zr2194     Zr  0.50210146  0.12576736  0.89531752     1.78800
O2195       O  0.43836201  0.05158743  0.01164510    -0.93900
O2196       O  0.52007965  0.15451492  0.84835135    -0.41700
O2197       O  0.47405655  0.11732752  0.94151705    -0.78400
O2198       O  0.46453019  0.12362379  0.87877056    -0.97100
O2199       O  0.41547560  0.08240841  0.88264835    -0.90400
O2200       O  0.42524452  0.07551366  0.95144041    -0.93200
C2201       C  0.53339605  0.09818565  0.86301602     1.00500
C2202       C  0.47871667  0.03465179  0.95758972     1.13500
C2203       C  0.44598938  0.04311640  0.79726683     1.04300
O2204       O  0.47358648  0.11776607  0.79361063    -0.95400
O2205       O  0.43030859  0.12310205  0.83064447    -0.91100
O2206       O  0.42968266  0.13805476  0.88288293    -0.84300
C2207       C  0.42730893  0.13784130  0.85038066     1.10900
O2208       O  0.39151692  0.00140262  0.90759492    -0.97300
Zr2209     Zr  0.40517929  0.04489579  0.90963797     1.88900
O2210       O  0.39076586  0.09624196  0.92588941    -0.74000
O2211       O  0.41105362  0.08494418  0.79697043    -0.53300
O2212       O  0.37405161  0.01963385  0.86787795    -0.97900
O2213       O  0.38603150  0.02760079  0.96435097    -0.55100
O2214       O  0.37416446  0.05660897  0.90956740    -0.74500
C2215       C  0.37256714  0.07551099  0.91678011     0.97800
O2216       O  0.44436258  0.15232237  0.94934921    -0.63300
O2217       O  0.50151584  0.09864934  0.99900066    -0.58100
O2218       O  0.43699488  0.11845627  0.98772726    -0.94800
O2219       O  0.45906661  0.10230706  0.01033794    -0.93200
O2220       O  0.53343172  0.14115381  0.93959494    -0.93600
O2221       O  0.51741548  0.16839782  0.91005378    -0.92400
C2222       C  0.44722461  0.11370001  0.01285425     1.16700
H2223       H  0.50666275  0.08789587  0.92924157     0.32600
H2224       H  0.46910424  0.13954893  0.86934948     0.43500
H2225       H  0.41488301  0.07254710  0.97123478     0.37000
H2226       H  0.42257004  0.03975122  0.84897141     0.33500
H2227       H  0.53793162  0.16082116  0.85018374     0.25300
H2228       H  0.41639229  0.08211327  0.77454316     0.31200
H2229       H  0.35814912  0.01373083  0.87963407     0.37100
H2230       H  0.53879222  0.12891997  0.94159427     0.31600
H2231       H  0.50676774  0.11625104  0.99862741     0.30500
H2232       H  0.45007166  0.05368634  0.02995186     0.32100
H2233       H  0.39287892  0.01716919  0.97133282     0.31100
H2234       H  0.50620710  0.16789067  0.92815159     0.35100
H2235       H  0.45576188  0.16491249  0.93317641     0.27800
H2236       H  0.48796737  0.02552518  0.85312760     0.32100
H2237       H  0.40300266  0.00009293  0.89165193     0.34900
H2238       H  0.49645255  0.09353988  0.02286338     0.27500
H2239       H  0.42888864  0.15270224  0.94757413     0.40400
H2240       H  0.47002015  0.10693682  0.77362873     0.30500
H2241       H  0.51503652  0.14423118  0.82762115     0.38100
H2242       H  0.36864867  0.01601295  0.95885889     0.29900
H2243       H  0.39714918  0.06896746  0.80392011     0.30000
H2244       H  0.45944349  0.00864873  0.85778787     0.30200
Zr2245     Zr  0.26667823  0.09965048  0.54552455     2.17500
O2246       O  0.30281105  0.13975540  0.53653767    -0.52100
O2247       O  0.24744277  0.12322017  0.52829428    -0.75300
O2248       O  0.28498214  0.10375557  0.48943269    -0.82100
O2249       O  0.27488386  0.11069885  0.64210076    -0.83800
O2250       O  0.26380214  0.06774517  0.46111764    -0.79500
O2251       O  0.29110991  0.12806361  0.59086152    -0.91100
O2252       O  0.20640481  0.10111212  0.53698215    -0.77100
O2253       O  0.22880839  0.07292766  0.51746347    -0.86600
O2254       O  0.23507247  0.08946028  0.58645566    -0.86200
O2255       O  0.27076388  0.06505127  0.52853404    -0.73000
O2256       O  0.27580850  0.08109843  0.59229445    -0.85100
Zr2257     Zr  0.21070187  0.00769529  0.58812906     2.26400
Zr2258     Zr  0.23225321  0.03815674  0.50088648     2.06300
Zr2259     Zr  0.24306438  0.06953938  0.63186227     2.10000
Zr2260     Zr  0.19763153  0.06188371  0.55958736     1.78800
O2261       O  0.26698933  0.07121846  0.68154724    -0.93900
O2262       O  0.16906221  0.04816691  0.51189954    -0.41700
O2263       O  0.20523305  0.04136000  0.60544386    -0.78400
O2264       O  0.20040496  0.02709437  0.54273867    -0.97100
O2265       O  0.24215966  0.01936592  0.54659122    -0.90400
O2266       O  0.24770861  0.03544328  0.61630440    -0.93200
C2267       C  0.22590482  0.12066537  0.52790971     1.00500
C2268       C  0.29010153  0.12843881  0.62356206     1.13500
C2269       C  0.28150523  0.09015106  0.46333957     1.04300
O2270       O  0.20749996  0.04103154  0.45545792    -0.95400
O2271       O  0.19956830  0.99536196  0.49245132    -0.91100
O2272       O  0.18443814  0.97935322  0.54473500    -0.84300
C2273       C  0.18430714  0.97800381  0.51208812     1.10900
O2274       O  0.32108472  0.08062685  0.57803049    -0.97300
Zr2275     Zr  0.27916339  0.04661044  0.57534065     1.88900
O2276       O  0.22950269  0.98132319  0.58730948    -0.74000
O2277       O  0.24193989  0.01267135  0.46511716    -0.53300
O2278       O  0.30699054  0.04335495  0.53539399    -0.97900
O2279       O  0.29660407  0.04217312  0.62853454    -0.55100
O2280       O  0.26965396  0.00475177  0.57302242    -0.74500
C2281       C  0.25070221  0.98414970  0.57960476     0.97800
O2282       O  0.17470595  0.97301666  0.61333500    -0.63300
O2283       O  0.22398567  0.08973671  0.66137895    -0.58100
O2284       O  0.20292773  0.00266440  0.64996737    -0.94800
O2285       O  0.21664458  0.04032340  0.67306765    -0.93200
O2286       O  0.18342035  0.08211468  0.59867915    -0.93600
O2287       O  0.15560772  0.03617358  0.57926194    -0.92400
C2288       C  0.20606631  0.01711100  0.67507055     1.16700
H2289       H  0.23503025  0.10393423  0.59448767     0.32600
H2290       H  0.18445699  0.01640321  0.53307726     0.43500
H2291       H  0.25034292  0.02796733  0.63594680     0.37000
H2292       H  0.28474647  0.06924575  0.51428073     0.33500
H2293       H  0.15904263  0.05605071  0.51548255     0.25300
H2294       H  0.24546317  0.02033143  0.44228599     0.31200
H2295       H  0.29710729  0.03637639  0.51451260     0.37100
H2296       H  0.18230324  0.07448427  0.62109738     0.31600
H2297       H  0.20788078  0.07642307  0.66928161     0.30500
H2298       H  0.26093574  0.07740394  0.70016385     0.32100
H2299       H  0.31273494  0.04426752  0.62199355     0.31100
H2300       H  0.15366815  0.01970498  0.58158728     0.35100
H2301       H  0.16040049  0.97316867  0.60315913     0.27800
H2302       H  0.29822422  0.14758654  0.51836394     0.32100
H2303       H  0.32176045  0.09233267  0.56071082     0.34900
H2304       H  0.23367674  0.09631449  0.68251016     0.27500
H2305       H  0.17424016  0.95824701  0.60399162     0.40400
H2306       H  0.21372507  0.05872821  0.45259090     0.30500
H2307       H  0.17931205  0.05658001  0.49180822     0.38100
H2308       H  0.28668475  0.02467791  0.63461788     0.29900
H2309       H  0.25780926  0.01528489  0.47379711     0.30000
H2310       H  0.31558379  0.13695857  0.52639566     0.30200
Zr2311     Zr  0.37921957  0.15688793  0.28581783     2.17500
O2312       O  0.34427129  0.16287403  0.29588453    -0.52100
O2313       O  0.39974978  0.19969160  0.30432286    -0.75300
O2314       O  0.35992742  0.14211744  0.34105661    -0.82100
O2315       O  0.37239053  0.16122039  0.18933159    -0.83800
O2316       O  0.38051154  0.12635400  0.36900479    -0.79500
O2317       O  0.35498143  0.16102184  0.24009103    -0.91100
O2318       O  0.44086753  0.21748453  0.29659759    -0.77100
O2319       O  0.41663254  0.16658258  0.31414007    -0.86600
O2320       O  0.41109955  0.17783394  0.24516204    -0.86200
O2321       O  0.37448205  0.11767415  0.30179630    -0.73000
O2322       O  0.36950976  0.12888043  0.23921288    -0.85100
Zr2323     Zr  0.43474742  0.11984275  0.24249397     2.26400
Zr2324     Zr  0.41248453  0.12802901  0.33021192     2.06300
Zr2325     Zr  0.40242234  0.14958802  0.19974594     2.10000
Zr2326     Zr  0.44821793  0.18642548  0.27252675     1.78800
O2327       O  0.37551915  0.13015565  0.15117656    -0.93900
O2328       O  0.47611773  0.20018733  0.32104891    -0.41700
O2329       O  0.44027830  0.15888131  0.22584176    -0.78400
O2330       O  0.44461326  0.14848604  0.28886923    -0.97100
O2331       O  0.40294787  0.09988503  0.28382658    -0.90400
O2332       O  0.39763749  0.11073975  0.21461122    -0.93200
C2333       C  0.42163939  0.21814172  0.30560326     1.00500
C2334       C  0.35654403  0.16299159  0.20743412     1.13500
C2335       C  0.36303884  0.13144491  0.36674529     1.04300
O2336       O  0.43680708  0.15704124  0.37450858    -0.95400
O2337       O  0.44515653  0.11724903  0.33822071    -0.91100
O2338       O  0.45817781  0.11290662  0.28592700    -0.84300
C2339       C  0.45924784  0.11306773  0.31866279     1.10900
O2340       O  0.32272727  0.07718359  0.26246782    -0.97300
Zr2341     Zr  0.36607842  0.09073065  0.25507535     1.88900
O2342       O  0.41726234  0.07567022  0.24118557    -0.74000
O2343       O  0.40150627  0.09382934  0.36860906    -0.53300
O2344       O  0.34340259  0.05704963  0.29446721    -0.97900
O2345       O  0.34373446  0.07516005  0.20176355    -0.55100
O2346       O  0.37593371  0.05884683  0.24525412    -0.74500
C2347       C  0.39541192  0.05735053  0.24268934     0.97800
O2348       O  0.47479484  0.12705904  0.22410861    -0.63300
O2349       O  0.42780943  0.18763822  0.16922037    -0.58100
O2350       O  0.43961516  0.11970676  0.17975405    -0.94800
O2351       O  0.42186942  0.13973025  0.15549425    -0.93200
O2352       O  0.46406182  0.21978638  0.23154436    -0.93600
O2353       O  0.49010350  0.19984311  0.25462435    -0.92400
C2354       C  0.43352668  0.12811350  0.15384639     1.16700
H2355       H  0.41161085  0.19253354  0.23717961     0.32600
H2356       H  0.46027041  0.15285809  0.29847442     0.43500
H2357       H  0.39440481  0.10025878  0.19501607     0.37000
H2358       H  0.36025737  0.10788459  0.31559205     0.33500
H2359       H  0.48910488  0.21699759  0.31527908     0.25300
H2360       H  0.39454323  0.09704712  0.38927702     0.31200
H2361       H  0.35609207  0.05714615  0.30944094     0.37100
H2362       H  0.47427642  0.23470083  0.24512889     0.31600
H2363       H  0.44436868  0.18945985  0.16886900     0.30500
H2364       H  0.38131798  0.14288306  0.13328616     0.32100
H2365       H  0.35206887  0.06757697  0.18970982     0.31100
H2366       H  0.49027444  0.18452018  0.25006447     0.35100
H2367       H  0.47160184  0.11293439  0.20959133     0.27800
H2368       H  0.34860269  0.17363530  0.31605312     0.32100
H2369       H  0.32243441  0.09018728  0.27617543     0.34900
H2370       H  0.42214237  0.18396181  0.14529352     0.27500
H2371       H  0.48139757  0.14125920  0.20856299     0.40400
H2372       H  0.44118508  0.14758895  0.39024119     0.30500
H2373       H  0.46678558  0.20230384  0.33970474     0.38100
H2374       H  0.34765679  0.08988379  0.18827014     0.29900
H2375       H  0.38758860  0.07964858  0.35745947     0.30000
H2376       H  0.33048953  0.14688755  0.30334028     0.30200
C2377       C  0.33359292  0.13603006  0.40594077    -0.02600
C2378       C  0.34310983  0.12160613  0.39284460     0.07100
C2379       C  0.33101219  0.09648645  0.40088031    -0.02700
C2380       C  0.31103569  0.08631884  0.42361649    -0.02700
C2381       C  0.30107557  0.10046155  0.43642810     0.07200
C2382       C  0.31247033  0.12546455  0.42697644    -0.02900
Br2383     Br  0.29893294  0.14543434  0.44177944    -0.01500
Br2384     Br  0.34980051  0.17052434  0.39569531    -0.01600
Br2385     Br  0.29941394  0.05342358  0.43912546    -0.01500
Br2386     Br  0.34007558  0.07492255  0.37851272    -0.01500
C2387       C  0.41806886  0.10669468  0.09888037    -0.02600
C2388       C  0.43825962  0.12307707  0.11889144     0.07100
C2389       C  0.46130111  0.13758544  0.10347120    -0.02700
C2390       C  0.46412442  0.13555024  0.06814971    -0.02700
C2391       C  0.44374455  0.11943435  0.04808527     0.07200
C2392       C  0.42089974  0.10462638  0.06378790    -0.02900
Br2393     Br  0.39392634  0.07983633  0.03780931    -0.01500
Br2394     Br  0.38626591  0.08692940  0.11958194    -0.01600
Br2395     Br  0.49590072  0.15460475  0.04720894    -0.01500
Br2396     Br  0.48860057  0.16075536  0.13057808    -0.01500
C2397       C  0.25932896  0.95522952  0.54692664    -0.02600
C2398       C  0.25468478  0.96291108  0.57848517     0.07100
C2399       C  0.26037744  0.95494779  0.60880881    -0.02700
C2400       C  0.27345208  0.94221026  0.60756679    -0.02700
C2401       C  0.28102297  0.93746514  0.57604386     0.07200
C2402       C  0.27226497  0.94230832  0.54575524    -0.02900
Br2403     Br  0.27938371  0.93254526  0.50277498    -0.01500
Br2404     Br  0.24960449  0.96413668  0.50527501    -0.01600
Br2405     Br  0.28230199  0.93244787  0.64910284    -0.01500
Br2406     Br  0.25268062  0.96394561  0.65204193    -0.01500
C2407       C  0.44090241  0.99227915  0.73798316    -0.02600
C2408       C  0.41745759  0.98344831  0.72331100     0.07100
C2409       C  0.40462714  0.99597957  0.73045309    -0.02700
C2410       C  0.41373477  0.01524265  0.75434955    -0.02700
C2411       C  0.43719294  0.02419215  0.76931379     0.07200
C2412       C  0.45093646  0.01280572  0.76004309    -0.02900
Br2413     Br  0.48420011  0.02581527  0.77602478    -0.01500
Br2414     Br  0.45931946  0.97603492  0.72844833    -0.01600
Br2415     Br  0.39240589  0.02748320  0.76776547    -0.01500
Br2416     Br  0.37546633  0.98865291  0.70509657    -0.01500
C2417       C  0.31843535  0.86844013  0.39464911    -0.02600
C2418       C  0.31939799  0.88840388  0.37730310     0.07100
C2419       C  0.32314933  0.90909486  0.39569299    -0.02700
C2420       C  0.32652050  0.91012343  0.43113417    -0.02700
C2421       C  0.32546301  0.89014929  0.44867203     0.07200
C2422       C  0.32192374  0.86949677  0.43022392    -0.02900
Br2423     Br  0.32261005  0.84307539  0.45366229    -0.01500
Br2424     Br  0.31136488  0.83937156  0.36963895    -0.01600
Br2425     Br  0.33362168  0.93947580  0.45539680    -0.01500
Br2426     Br  0.32218957  0.93549382  0.37245099    -0.01500
C2427       C  0.37321502  0.99302329  0.21474713    -0.02600
C2428       C  0.36747767  0.98118489  0.24661166     0.07100
C2429       C  0.37756887  0.99514908  0.27633066    -0.02700
C2430       C  0.38977359  0.02087179  0.27448236    -0.02700
C2431       C  0.39175712  0.03245535  0.24299798     0.07200
C2432       C  0.38486049  0.01861297  0.21290707    -0.02900
Br2433     Br  0.38902852  0.03458496  0.16961564    -0.01500
Br2434     Br  0.36327805  0.97385234  0.17375150    -0.01600
Br2435     Br  0.40151909  0.04026818  0.31529689    -0.01500
Br2436     Br  0.37297216  0.97914338  0.31955747    -0.01500
C2437       C  0.21693794  0.00468804  0.76455400    -0.02600
C2438       C  0.19578243  0.00150327  0.78143918     0.07100
C2439       C  0.17660765  0.00107779  0.76226087    -0.02700
C2440       C  0.17888251  0.00428078  0.72657138    -0.02700
C2441       C  0.20015392  0.00752840  0.70999199     0.07200
C2442       C  0.21901675  0.00748892  0.72907422    -0.02900
Br2443     Br  0.24814452  0.01171072  0.70645807    -0.01500
Br2444     Br  0.24289123  0.00415177  0.78950672    -0.01600
Br2445     Br  0.15300567  0.00409324  0.70020466    -0.01500
Br2446     Br  0.14768706  0.99692587  0.78519152    -0.01500
C2447       C  0.31132941  0.05205751  0.87669852    -0.02600
C2448       C  0.29629095  0.04532917  0.90580989     0.07100
C2449       C  0.30709165  0.05487131  0.93780791    -0.02700
C2450       C  0.33285208  0.06860141  0.94109020    -0.02700
C2451       C  0.34780069  0.07233724  0.91254440     0.07200
C2452       C  0.33697920  0.06593115  0.88001481    -0.02900
Br2453     Br  0.35764494  0.07510224  0.84018553    -0.01500
Br2454     Br  0.29709083  0.04035552  0.83265286    -0.01600
Br2455     Br  0.34774841  0.08089260  0.98475801    -0.01500
Br2456     Br  0.28672877  0.04691786  0.97762453    -0.01500
C2457       C  0.20312974  0.87588043  0.08850017    -0.02600
C2458       C  0.22834079  0.88902058  0.09765656     0.07100
C2459       C  0.24350117  0.91185482  0.08160585    -0.02700
C2460       C  0.23379084  0.92104308  0.05711723    -0.02700
C2461       C  0.20837960  0.90892660  0.05025150     0.07200
C2462       C  0.19318570  0.88599563  0.06560551    -0.02900
Br2463     Br  0.15848863  0.86848536  0.05574039    -0.01500
Br2464     Br  0.18201864  0.84334510  0.10582604    -0.01600
Br2465     Br  0.25610493  0.94927691  0.03073447    -0.01500
Br2466     Br  0.27740968  0.93230427  0.09429993    -0.01500
C2467       C  0.47220650  0.87957168  0.68213550    -0.02600
C2468       C  0.49491474  0.89063074  0.66467693     0.07100
C2469       C  0.49745607  0.90435960  0.63490166    -0.02700
C2470       C  0.47800465  0.90786071  0.62406053    -0.02700
C2471       C  0.45650272  0.89900423  0.64382013     0.07200
C2472       C  0.45373472  0.88485165  0.67293435    -0.02900
Br2473     Br  0.42512260  0.87364269  0.70140021    -0.01500
Br2474     Br  0.46517018  0.85504082  0.71644520    -0.01600
Br2475     Br  0.48028257  0.92394588  0.58135281    -0.01500
Br2476     Br  0.52749975  0.91901235  0.60905051    -0.01500
C2477       C  0.64999491  0.87974854  0.59576160    -0.02600
C2478       C  0.63686425  0.89178364  0.60474776     0.07100
C2479       C  0.64379320  0.91463906  0.58923058    -0.02700
C2480       C  0.66338561  0.92514150  0.56566800    -0.02700
C2481       C  0.67642099  0.91310539  0.55706662     0.07200
C2482       C  0.66966773  0.89041919  0.57239508    -0.02900
Br2483     Br  0.68817790  0.87425874  0.56250716    -0.01500
Br2484     Br  0.64063175  0.84783861  0.61365922    -0.01600
Br2485     Br  0.67180302  0.95590464  0.54437121    -0.01500
Br2486     Br  0.62753431  0.93273734  0.60058175    -0.01500
C2487       C  0.59318087  0.12320598  0.81404470    -0.02600
C2488       C  0.60465326  0.11139013  0.82994019     0.07100
C2489       C  0.59263811  0.09556479  0.85773441    -0.02700
C2490       C  0.56920842  0.09098107  0.86830258    -0.02700
C2491       C  0.55738197  0.10178687  0.85101080     0.07200
C2492       C  0.56945103  0.11776980  0.82371389    -0.02900
Br2493     Br  0.55297105  0.13152786  0.79834505    -0.01500
Br2494     Br  0.61062177  0.14885187  0.78109200    -0.01600
Br2495     Br  0.55354446  0.07043025  0.90720851    -0.01500
Br2496     Br  0.60773389  0.07977339  0.88144595    -0.01500
C2497       C  0.59437531  0.99463506  0.77373389    -0.02600
C2498       C  0.59034811  0.98067543  0.74402816     0.07100
C2499       C  0.59631128  0.99252168  0.71205864    -0.02700
C2500       C  0.60920167  0.01825805  0.71018752    -0.02700
C2501       C  0.61554571  0.03228617  0.74018295     0.07200
C2502       C  0.60657054  0.02036872  0.77175576    -0.02900
Br2503     Br  0.61286288  0.03940053  0.81270170    -0.01500
Br2504     Br  0.58563022  0.97860613  0.81733260    -0.01600
Br2505     Br  0.62034788  0.03443136  0.66690528    -0.01500
Br2506     Br  0.58843379  0.97339089  0.67090094    -0.01500
C2507       C  0.75249789  0.00055769  0.26725504    -0.02600
C2508       C  0.77100519  0.99783625  0.28324568     0.07100
C2509       C  0.79047840  0.99924432  0.26374146    -0.02700
C2510       C  0.79211461  0.00471605  0.22873214    -0.02700
C2511       C  0.77383723  0.00789754  0.21292092     0.07200
C2512       C  0.75417061  0.00609106  0.23233777    -0.02900
Br2513     Br  0.73001315  0.01213245  0.21138356    -0.01500
Br2514     Br  0.72394267  0.99496718  0.29276740    -0.01600
Br2515     Br  0.82016523  0.00946945  0.20269201    -0.01500
Br2516     Br  0.81483788  0.99366093  0.28499507    -0.01500
C2517       C  0.78326390  0.12002084  0.92551368    -0.02600
C2518       C  0.76910338  0.09618951  0.93879726     0.07100
C2519       C  0.74441287  0.08190049  0.92815529    -0.02700
C2520       C  0.73422659  0.09122668  0.90446241    -0.02700
C2521       C  0.74828075  0.11538295  0.89190841     0.07200
C2522       C  0.77286483  0.12970687  0.90299668    -0.02900
Br2523     Br  0.79249629  0.16336813  0.88912082    -0.01500
Br2524     Br  0.81749711  0.13948032  0.93679179    -0.01600
Br2525     Br  0.70128100  0.07003064  0.88826068    -0.01500
Br2526     Br  0.72374971  0.04982860  0.94719949    -0.01500
C2527       C  0.66045526  0.10504280  0.56438882    -0.02600
C2528       C  0.65384718  0.12034791  0.54710845     0.07100
C2529       C  0.65123683  0.13815929  0.56539165    -0.02700
C2530       C  0.65564824  0.14080638  0.60084378    -0.02700
C2531       C  0.66283969  0.12575395  0.61781042     0.07200
C2532       C  0.66533966  0.10800315  0.59942166    -0.02900
Br2533     Br  0.67494828  0.08719004  0.62258389    -0.01500
Br2534     Br  0.66066301  0.07848627  0.54055514    -0.01600
Br2535     Br  0.65143235  0.16452260  0.62629538    -0.01500
Br2536     Br  0.64101325  0.15834031  0.54184581    -0.01500
C2537       C  0.47431404  0.09341344  0.36236272    -0.02600
C2538       C  0.47890494  0.10905453  0.33399914     0.07100
C2539       C  0.50256615  0.12018628  0.31880740    -0.02700
C2540       C  0.52056630  0.11492564  0.33052018    -0.02700
C2541       C  0.51608386  0.09976815  0.35896030     0.07200
C2542       C  0.49282641  0.08883294  0.37472313    -0.02900
Br2543     Br  0.48643498  0.06760596  0.41334300    -0.01500
Br2544     Br  0.44269937  0.07766239  0.38425816    -0.01600
Br2545     Br  0.55127156  0.12749638  0.30618763    -0.01500
Br2546     Br  0.51187812  0.14458248  0.28364345    -0.01500
C2547       C  0.49912545  0.99167290  0.47546074    -0.02600
C2548       C  0.50875263  0.01699002  0.47946765     0.07100
C2549       C  0.49868481  0.02587377  0.50387767    -0.02700
C2550       C  0.47882014  0.00947601  0.52401532    -0.02700
C2551       C  0.46913163  0.98413282  0.52002201     0.07200
C2552       C  0.47947529  0.97526851  0.49592833    -0.02900
Br2553     Br  0.46768118  0.94065508  0.49208646    -0.01500
Br2554     Br  0.51359782  0.97933001  0.44332774    -0.01600
Br2555     Br  0.46423852  0.02195586  0.55570178    -0.01500
Br2556     Br  0.51146071  0.06060565  0.50889717    -0.01500
C2557       C  0.70592704  0.06671817  0.37997001    -0.02600
C2558       C  0.69993805  0.07254508  0.41203429     0.07100
C2559       C  0.71018901  0.06878722  0.44154984    -0.02700
C2560       C  0.72206818  0.05493318  0.43981153    -0.02700
C2561       C  0.72588961  0.04692186  0.40795334     0.07200
C2562       C  0.71976694  0.05481723  0.37801728    -0.02900
Br2563     Br  0.72882447  0.04764993  0.33456384    -0.01500
Br2564     Br  0.69339325  0.07310833  0.33881951    -0.01600
Br2565     Br  0.73043455  0.04463523  0.48141693    -0.01500
Br2566     Br  0.70602980  0.08083276  0.48451601    -0.01500
C2567       C  0.52400994  0.87516193  0.93212968    -0.02600
C2568       C  0.54222219  0.89525647  0.95044906     0.07100
C2569       C  0.56176113  0.91449928  0.93264337    -0.02700
C2570       C  0.56410367  0.91286771  0.89724081    -0.02700
C2571       C  0.54597960  0.89279815  0.87881356     0.07200
C2572       C  0.52582929  0.87400423  0.89637661    -0.02900
Br2573     Br  0.50109118  0.84645700  0.87127930    -0.01500
Br2574     Br  0.49639702  0.84955013  0.95610602    -0.01600
Br2575     Br  0.59284604  0.93768035  0.87425259    -0.01500
Br2576     Br  0.58459773  0.94386879  0.95659241    -0.01500
C2577       C  0.38781108  0.91616040  0.13949096    -0.02600
C2578       C  0.37432438  0.89902197  0.16530450     0.07100
C2579       C  0.38437393  0.88542845  0.17987679    -0.02700
C2580       C  0.40799141  0.89005578  0.17058886    -0.02700
C2581       C  0.42129872  0.90699387  0.14468286     0.07200
C2582       C  0.41108926  0.92006612  0.12924301    -0.02900
Br2583     Br  0.42900179  0.94334859  0.09374116    -0.01500
Br2584     Br  0.37488944  0.93473323  0.11819794    -0.01600
Br2585     Br  0.42298233  0.87458350  0.19548439    -0.01500
Br2586     Br  0.36507213  0.85880468  0.21065277    -0.01500
C2587       C  0.57763437  0.01486416  0.26037303    -0.02600
C2588       C  0.56253082  0.02338346  0.27429503     0.07100
C2589       C  0.53779647  0.01241454  0.26362915    -0.02700
C2590       C  0.52798481  0.99239459  0.24095452    -0.02700
C2591       C  0.54300270  0.98360852  0.22763821     0.07200
C2592       C  0.56795367  0.99525264  0.23711144    -0.02900
Br2593     Br  0.58966794  0.98556928  0.21656260    -0.01500
Br2594     Br  0.61176051  0.02954098  0.27288009    -0.01600
Br2595     Br  0.49367403  0.97673025  0.22882085    -0.01500
Br2596     Br  0.51771461  0.02605844  0.27769494    -0.01500
C2597       C  0.67190599  0.95271011  0.11428160    -0.02600
C2598       C  0.68584176  0.96215271  0.08445442     0.07100
C2599       C  0.67379246  0.95683478  0.05259371    -0.02700
C2600       C  0.64801950  0.94460408  0.05102152    -0.02700
C2601       C  0.63425910  0.93891807  0.08122125     0.07200
C2602       C  0.64615094  0.94185372  0.11286796    -0.02900
Br2603     Br  0.62740270  0.93292057  0.15448172    -0.01500
Br2604     Br  0.68841068  0.95663991  0.15709652    -0.01600
Br2605     Br  0.63160444  0.93768459  0.00765550    -0.01500
Br2606     Br  0.69257833  0.96886661  0.01114065    -0.01500
C2607       C  0.47133656  0.97825783  0.00125202    -0.02600
C2608       C  0.49261836  0.98843022  0.02172267     0.07100
C2609       C  0.51008506  0.01341976  0.01900227    -0.02700
C2610       C  0.50603163  0.02829304  0.99648382    -0.02700
C2611       C  0.48466297  0.01817513  0.97624132     0.07200
C2612       C  0.46717723  0.99320026  0.97892927    -0.02900
Br2613     Br  0.43685543  0.97987626  0.95373938    -0.01500
Br2614     Br  0.44787247  0.94378629  0.00372670    -0.01600
Br2615     Br  0.52974384  0.06270815  0.99355323    -0.01500
Br2616     Br  0.54025377  0.02700016  0.04461872    -0.01500
C2617       C  0.42596607  0.18600211  0.79077877    -0.02600
C2618       C  0.41548457  0.19632785  0.81214400     0.07100
C2619       C  0.40748825  0.18633149  0.84481468    -0.02700
C2620       C  0.40899882  0.16578507  0.85558782    -0.02700
C2621       C  0.42146862  0.15654371  0.83551546     0.07200
C2622       C  0.42974836  0.16691960  0.80262531    -0.02900
Br2623     Br  0.44746689  0.15642330  0.77352224    -0.01500
Br2624     Br  0.43475503  0.19777063  0.74465745    -0.01600
Br2625     Br  0.39197390  0.14972258  0.89706943    -0.01500
Br2626     Br  0.39671691  0.20241564  0.87641469    -0.01500
C2627       C  0.31337062  0.18181069  0.68371730    -0.02600
C2628       C  0.33835621  0.18883288  0.68590032     0.07100
C2629       C  0.34789027  0.17701333  0.66580191    -0.02700
C2630       C  0.33238065  0.15804361  0.64365584    -0.02700
C2631       C  0.30728974  0.15070253  0.64201110     0.07200
C2632       C  0.29786560  0.16273960  0.66183411    -0.02900
Br2633     Br  0.26374779  0.15360013  0.65808524    -0.01500
Br2634     Br  0.30054042  0.19907331  0.70932924    -0.01600
Br2635     Br  0.34533611  0.14165471  0.61649376    -0.01500
Br2636     Br  0.38203770  0.18624483  0.66972649    -0.01500
C2637       C  0.20709335  0.08796173  0.99668518    -0.02600
C2638       C  0.22310896  0.09963202  0.02410986     0.07100
C2639       C  0.23590558  0.08884696  0.03867027    -0.02700
C2640       C  0.23283811  0.06658954  0.02566567    -0.02700
C2641       C  0.21691093  0.05493473  0.99780214     0.07200
C2642       C  0.20323733  0.06535060  0.98458018    -0.02900
Br2643     Br  0.17721791  0.04779735  0.95209129    -0.01500
Br2644     Br  0.19186264  0.10399130  0.97367844    -0.01600
Br2645     Br  0.25073812  0.05253721  0.04619333    -0.01500
Br2646     Br  0.25777947  0.10473723  0.07640439    -0.01500
C2647       C  0.32478815  0.21557648  0.90045351    -0.02600
C2648       C  0.33504794  0.24017066  0.88944288     0.07100
C2649       C  0.32492686  0.25413974  0.90222652    -0.02700
C2650       C  0.30569667  0.24412654  0.92632520    -0.02700
C2651       C  0.29594669  0.21981763  0.93790698     0.07200
C2652       C  0.30531231  0.20546999  0.92424351    -0.02900
Br2653     Br  0.29074535  0.17146160  0.93707564    -0.01500
Br2654     Br  0.33779210  0.19551873  0.88446647    -0.01600
Br2655     Br  0.29372510  0.26462998  0.94430704    -0.01500
Br2656     Br  0.33635582  0.28686320  0.88571979    -0.01500
C2657       C  0.29743021  0.15119870  0.16628968    -0.02600
C2658       C  0.30611957  0.17119473  0.14375885     0.07100
C2659       C  0.33119068  0.18898787  0.14331930    -0.02700
C2660       C  0.34757359  0.18662831  0.16503966    -0.02700
C2661       C  0.33881589  0.16698153  0.18825267     0.07200
C2662       C  0.31366728  0.14933152  0.18900084    -0.02900
Br2663     Br  0.30147904  0.12218583  0.22028672    -0.01500
Br2664     Br  0.26330467  0.12605998  0.16539472    -0.01600
Br2665     Br  0.38204007  0.21091245  0.16372307    -0.01500
Br2666     Br  0.34293360  0.21762366  0.11487470    -0.01500
C2667       C  0.38639152  0.38547393  0.78215169    -0.02600
C2668       C  0.39202762  0.38069659  0.74920871     0.07100
C2669       C  0.39058753  0.39401818  0.72143165    -0.02700
C2670       C  0.37947768  0.40845111  0.72579951    -0.02700
C2671       C  0.36961628  0.40924498  0.75764578     0.07200
C2672       C  0.37528651  0.39982049  0.78626656    -0.02900
Br2673     Br  0.36640546  0.40544052  0.83071034    -0.01500
Br2674     Br  0.39223231  0.37108819  0.82166270    -0.01600
Br2675     Br  0.37613265  0.42589136  0.68803923    -0.01500
Br2676     Br  0.40215864  0.39136395  0.67734346    -0.01500
C2677       C  0.19282130  0.20821795  0.27271412    -0.02600
C2678       C  0.21050026  0.22972722  0.28889997     0.07100
C2679       C  0.23035371  0.24783689  0.27019182    -0.02700
C2680       C  0.23219724  0.24462662  0.23509146    -0.02700
C2681       C  0.21442920  0.22312779  0.21884666     0.07200
C2682       C  0.19545973  0.20441594  0.23808371    -0.02900
Br2683     Br  0.17414081  0.17305287  0.21757520    -0.01500
Br2684     Br  0.16449011  0.18450298  0.29776327    -0.01600
Br2685     Br  0.25982175  0.26895669  0.20957274    -0.01500
Br2686     Br  0.25480663  0.27707928  0.29269192    -0.01500
C2687       C  0.23541573  0.18515757  0.52024617    -0.02600
C2688       C  0.21605723  0.18118305  0.49824501     0.07100
C2689       C  0.20055803  0.15746407  0.48527518    -0.02700
C2690       C  0.20462298  0.13811341  0.49355865    -0.02700
C2691       C  0.22329128  0.14176829  0.51673028     0.07200
C2692       C  0.23882666  0.16551137  0.52989689    -0.02900
Br2693     Br  0.26479465  0.17142869  0.56143827    -0.01500
Br2694     Br  0.25816336  0.21771123  0.53566036    -0.01600
Br2695     Br  0.18605096  0.10723064  0.47024934    -0.01500
Br2696     Br  0.17316899  0.15116768  0.45641951    -0.01500
C2697       C  0.23860056  0.33317386  0.56815463    -0.02600
C2698       C  0.21333558  0.32058014  0.56036742     0.07100
C2699       C  0.19787120  0.32767422  0.57631251    -0.02700
C2700       C  0.20756009  0.34747475  0.59923807    -0.02700
C2701       C  0.23269946  0.35951162  0.60855312     0.07200
C2702       C  0.24812413  0.35198877  0.59278621    -0.02900
Br2703     Br  0.28205583  0.36589348  0.60586292    -0.01500
Br2704     Br  0.26055928  0.32539225  0.54411843    -0.01600
Br2705     Br  0.18601702  0.35851715  0.61589505    -0.01500
Br2706     Br  0.16291883  0.30929145  0.56805203    -0.01500
C2707       C  0.32289467  0.42840217  0.90329288    -0.02600
C2708       C  0.32109475  0.44685459  0.88568505     0.07100
C2709       C  0.32344112  0.46725363  0.90349843    -0.02700
C2710       C  0.32829358  0.46953724  0.93866670    -0.02700
C2711       C  0.33000579  0.45102767  0.95612907     0.07200
C2712       C  0.32759945  0.43062219  0.93841489    -0.02900
Br2713     Br  0.33132619  0.40602209  0.96237666    -0.01500
Br2714     Br  0.31762537  0.39945600  0.87974640    -0.01600
Br2715     Br  0.33309388  0.49813132  0.96295118    -0.01500
Br2716     Br  0.31895061  0.49144694  0.87983879    -0.01500
C2717       C  0.27168315  0.34960093  0.11790464    -0.02600
C2718       C  0.28062936  0.36188512  0.08655460     0.07100
C2719       C  0.27220637  0.34847066  0.05613399    -0.02700
C2720       C  0.25893506  0.32271037  0.05710390    -0.02700
C2721       C  0.25302151  0.31028400  0.08861566     0.07200
C2722       C  0.25717674  0.32385282  0.11876020    -0.02900
Br2723     Br  0.24363146  0.30710011  0.16096720    -0.01500
Br2724     Br  0.28047734  0.36800320  0.15974123    -0.01600
Br2725     Br  0.24993508  0.30425896  0.01527168    -0.01500
Br2726     Br  0.27997350  0.36540161  0.01332561    -0.01500
C2727       C  0.45398633  0.33065425  0.56186279    -0.02600
C2728       C  0.44081170  0.34117020  0.54793296     0.07100
C2729       C  0.42617749  0.34660473  0.56932682    -0.02700
C2730       C  0.42435838  0.34116857  0.60421577    -0.02700
C2731       C  0.43859419  0.33202827  0.61866327     0.07200
C2732       C  0.45359853  0.32693309  0.59736633    -0.02900
Br2733     Br  0.47401564  0.31541047  0.61704119    -0.01500
Br2734     Br  0.47221963  0.32114048  0.53234270    -0.01600
Br2735     Br  0.40010246  0.34349098  0.63130843    -0.01500
Br2736     Br  0.40777222  0.36078183  0.55057940    -0.01500
C2737       C  0.44766556  0.27969363  0.35024982    -0.02600
C2738       C  0.43357428  0.28916247  0.33588049     0.07100
C2739       C  0.41603233  0.27549729  0.31069171    -0.02700
C2740       C  0.41188933  0.25215726  0.30116443    -0.02700
C2741       C  0.42503139  0.24211855  0.31705927     0.07200
C2742       C  0.44289913  0.25607160  0.34179814    -0.02900
Br2743     Br  0.46019186  0.24260485  0.36575048    -0.01500
Br2744     Br  0.47511075  0.29994707  0.37951098    -0.01600
Br2745     Br  0.38897025  0.23450965  0.26501200    -0.01500
Br2746     Br  0.39768081  0.28862213  0.28900618    -0.01500
C2747       C  0.41023268  0.41766239  0.26685533    -0.02600
C2748       C  0.43483960  0.43164928  0.27794534     0.07100
C2749       C  0.44889747  0.45620362  0.26718442    -0.02700
C2750       C  0.43838559  0.46679018  0.24667503    -0.02700
C2751       C  0.41397036  0.45274150  0.23507074     0.07200
C2752       C  0.39995290  0.42809395  0.24538397    -0.02900
Br2753     Br  0.36692334  0.40786374  0.22890450    -0.01500
Br2754     Br  0.39001954  0.38419034  0.28116898    -0.01600
Br2755     Br  0.45765017  0.50096340  0.23529514    -0.01500
Br2756     Br  0.48335020  0.47518403  0.27810583    -0.01500
C2757       C  0.33631319  0.29272645  0.45529996    -0.02600
C2758       C  0.35000909  0.29690651  0.42522716     0.07100
C2759       C  0.33764154  0.28656073  0.39431858    -0.02700
C2760       C  0.31182738  0.27461055  0.39279783    -0.02700
C2761       C  0.29840858  0.27333417  0.42207031     0.07200
C2762       C  0.31055012  0.28094795  0.45375697    -0.02900
Br2763     Br  0.29204823  0.27719675  0.49468245    -0.01500
Br2764     Br  0.35309060  0.30592037  0.49783848    -0.01600
Br2765     Br  0.29498542  0.26277495  0.34996641    -0.01500
Br2766     Br  0.35617449  0.29155661  0.35318848    -0.01500
C2767       C  0.50794988  0.40933234  0.87525614    -0.02600
C2768       C  0.51487292  0.43137954  0.85758808     0.07100
C2769       C  0.50231042  0.43034482  0.82734765    -0.02700
C2770       C  0.48251933  0.40804439  0.81573650    -0.02700
C2771       C  0.47609192  0.38577935  0.83265913     0.07200
C2772       C  0.48938385  0.38666580  0.86220446    -0.02900
Br2773     Br  0.48406940  0.35687137  0.88332829    -0.01500
Br2774     Br  0.52338063  0.40994330  0.91803330    -0.01600
Br2775     Br  0.46417183  0.40874772  0.77661615    -0.01500
Br2776     Br  0.51382100  0.45902079  0.79937487    -0.01500
C2777       C  0.50481132  0.52316087  0.99417029    -0.02600
C2778       C  0.50857115  0.50371723  0.98547292     0.07100
C2779       C  0.49446683  0.48061875  0.00073019    -0.02700
C2780       C  0.47587452  0.47673118  0.02383203    -0.02700
C2781       C  0.47247896  0.49634207  0.03304915     0.07200
C2782       C  0.48712729  0.51958476  0.01862858    -0.02900
Br2783     Br  0.48267421  0.54638436  0.03243754    -0.01500
Br2784     Br  0.52413713  0.55471581  0.97300592    -0.01600
Br2785     Br  0.45422788  0.44438882  0.04132462    -0.01500
Br2786     Br  0.50049325  0.45432614  0.98948189    -0.01500
C2787       C  0.38786690  0.51968221  0.69095894    -0.02600
C2788       C  0.37552716  0.49667063  0.67452276     0.07100
C2789       C  0.38656405  0.49260204  0.64570569    -0.02700
C2790       C  0.40965630  0.51111486  0.63398830    -0.02700
C2791       C  0.42238601  0.53344130  0.65165554     0.07200
C2792       C  0.41140297  0.53759757  0.68022268    -0.02900
Br2793     Br  0.42877654  0.56786164  0.70524386    -0.01500
Br2794     Br  0.37188224  0.52799483  0.72624351    -0.01600
Br2795     Br  0.42317071  0.50656691  0.59230758    -0.01500
Br2796     Br  0.37063922  0.46182165  0.62197041    -0.01500
C2797       C  0.54274822  0.72361286  0.69929532    -0.02600
C2798       C  0.55298909  0.72212397  0.66775166     0.07100
C2799       C  0.56722753  0.74410260  0.64917678    -0.02700
C2800       C  0.56871383  0.76611295  0.65980704    -0.02700
C2801       C  0.55950620  0.76778564  0.69183738     0.07200
C2802       C  0.54752635  0.74654960  0.71219826    -0.02900
Br2803     Br  0.53898845  0.74905143  0.75864721    -0.01500
Br2804     Br  0.52037262  0.69448480  0.72398837    -0.01600
Br2805     Br  0.58147569  0.79335764  0.62861842    -0.01500
Br2806     Br  0.58650675  0.74525456  0.61008672    -0.01500
C2807       C  0.47764895  0.51440351  0.49937412    -0.02600
C2808       C  0.49800868  0.52512465  0.52153677     0.07100
C2809       C  0.51529788  0.51720463  0.52119220    -0.02700
C2810       C  0.51175870  0.49801345  0.49950271    -0.02700
C2811       C  0.49104496  0.48688856  0.47802933     0.07200
C2812       C  0.47421911  0.49538874  0.47754180    -0.02900
Br2813     Br  0.44587090  0.48044413  0.44806663    -0.01500
Br2814     Br  0.45400003  0.52542089  0.49945400    -0.01600
Br2815     Br  0.53587384  0.48767812  0.49790180    -0.01500
Br2816     Br  0.54447601  0.53351752  0.54881173    -0.01500
C2817       C  0.56535702  0.58830911  0.73987199    -0.02600
C2818       C  0.54051463  0.57575455  0.72987781     0.07100
C2819       C  0.52464662  0.55280829  0.74463317    -0.02700
C2820       C  0.53352358  0.54263034  0.76903655    -0.02700
C2821       C  0.55846817  0.55543137  0.77960636     0.07200
C2822       C  0.57377605  0.57911343  0.76606793    -0.02900
Br2823     Br  0.60522117  0.60107156  0.78614958    -0.01500
Br2824     Br  0.58895430  0.61674850  0.71502933    -0.01600
Br2825     Br  0.51070977  0.51118472  0.78757793    -0.01500
Br2826     Br  0.49051509  0.53512336  0.73127128    -0.01500
C2827       C  0.55695088  0.67093488  0.39832264    -0.02600
C2828       C  0.53915940  0.67445489  0.38171569     0.07100
C2829       C  0.52054897  0.67504756  0.40102267    -0.02700
C2830       C  0.51918229  0.67101301  0.43653450    -0.02700
C2831       C  0.53693304  0.66729275  0.45294458     0.07200
C2832       C  0.55567712  0.66706073  0.43362473    -0.02900
Br2833     Br  0.57942735  0.66077535  0.45539765    -0.01500
Br2834     Br  0.58430131  0.67326981  0.37312870    -0.01600
Br2835     Br  0.49265909  0.66971224  0.46271956    -0.01500
Br2836     Br  0.49736817  0.68191740  0.37884519    -0.01500
C2837       C  0.49485418  0.59629819  0.18751441    -0.02600
C2838       C  0.50707911  0.61749469  0.16665517     0.07100
C2839       C  0.49893575  0.61565117  0.13232020    -0.02700
C2840       C  0.47852297  0.59370414  0.12022074    -0.02700
C2841       C  0.46532165  0.57374266  0.14236855     0.07200
C2842       C  0.47321002  0.57562717  0.17627583    -0.02900
Br2843     Br  0.45241240  0.55111937  0.20889929    -0.01500
Br2844     Br  0.50818892  0.59375393  0.23075116    -0.01600
Br2845     Br  0.46831938  0.59109733  0.07333045    -0.01500
Br2846     Br  0.51481881  0.64276045  0.10108261    -0.01500
C2847       C  0.57268851  0.84553429  0.14997525    -0.02600
C2848       C  0.55341761  0.84874924  0.16289888     0.07100
C2849       C  0.53762559  0.83211066  0.18772917    -0.02700
C2850       C  0.54108182  0.81284707  0.19957311    -0.02700
C2851       C  0.56014362  0.80935279  0.18630736     0.07200
C2852       C  0.57586359  0.82599464  0.16129182    -0.02900
Br2853     Br  0.60078034  0.82117678  0.13987478    -0.01500
Br2854     Br  0.59528201  0.86795963  0.11650011    -0.01600
Br2855     Br  0.51941871  0.79164241  0.23467434    -0.01500
Br2856     Br  0.50970789  0.83422078  0.20377763    -0.01500
C2857       C  0.63541426  0.83084797  0.33018748    -0.02600
C2858       C  0.64331568  0.81604316  0.31416438     0.07100
C2859       C  0.66757928  0.82103884  0.31897437    -0.02700
C2860       C  0.68391348  0.84100989  0.33932619    -0.02700
C2861       C  0.67561658  0.85509957  0.35673892     0.07200
C2862       C  0.65117287  0.84968426  0.35238999    -0.02900
Br2863     Br  0.63948902  0.86885143  0.37549988    -0.01500
Br2864     Br  0.60363838  0.82664282  0.31916380    -0.01600
Br2865     Br  0.71770154  0.84917211  0.34290182    -0.01500
Br2866     Br  0.67830195  0.80027564  0.29828436    -0.01500
C2867       C  0.73980010  0.90839531  0.00152301    -0.02600
C2868       C  0.75664500  0.90705786  0.97868117     0.07100
C2869       C  0.77710285  0.92945824  0.96756828    -0.02700
C2870       C  0.78084186  0.95220171  0.97973129    -0.02700
C2871       C  0.76353827  0.95334757  0.00132174     0.07200
C2872       C  0.74275850  0.93123765  0.01152369    -0.02900
Br2873     Br  0.71771492  0.93205381  0.03892799    -0.01500
Br2874     Br  0.71360007  0.87934524  0.02243441    -0.01600
Br2875     Br  0.81081578  0.98184828  0.96867942    -0.01500
Br2876     Br  0.80015463  0.92993667  0.93462736    -0.01500
C2877       C  0.71747516  0.67906490  0.89370336    -0.02600
C2878       C  0.71820129  0.69248248  0.92276010     0.07100
C2879       C  0.71048003  0.68045556  0.95436825    -0.02700
C2880       C  0.69934172  0.65487151  0.95608133    -0.02700
C2881       C  0.69578244  0.64101327  0.92635649     0.07200
C2882       C  0.70593453  0.65330536  0.89534845    -0.02900
Br2883     Br  0.70127289  0.63469075  0.85436698    -0.01500
Br2884     Br  0.73005238  0.69587022  0.85109749    -0.01600
Br2885     Br  0.68597630  0.63854032  0.99850869    -0.01500
Br2886     Br  0.71369612  0.69895985  0.99507889    -0.01500
C2887       C  0.65151588  0.77522969  0.05022263    -0.02600
C2888       C  0.67660739  0.78810834  0.05981687     0.07100
C2889       C  0.68292956  0.78968679  0.09451097    -0.02700
C2890       C  0.66442908  0.77835163  0.11926155    -0.02700
C2891       C  0.63938975  0.76641246  0.10968822     0.07200
C2892       C  0.63304235  0.76492468  0.07513554    -0.02900
Br2893     Br  0.59895639  0.74883592  0.06179382    -0.01500
Br2894     Br  0.64180317  0.76928365  0.00293151    -0.01600
Br2895     Br  0.67375764  0.77747796  0.16592563    -0.01500
Br2896     Br  0.71690193  0.80765822  0.10840720    -0.01500
C2897       C  0.64943162  0.81250059  0.83550962    -0.02600
C2898       C  0.66950074  0.83105374  0.85346208     0.07100
C2899       C  0.67635304  0.85571402  0.84862937    -0.02700
C2900       C  0.66242412  0.86174277  0.82705774    -0.02700
C2901       C  0.64204242  0.84311430  0.80982179     0.07200
C2902       C  0.63581385  0.81858910  0.81340208    -0.02900
Br2903     Br  0.60863423  0.79353709  0.78788843    -0.01500
Br2904     Br  0.64077358  0.77882633  0.84093841    -0.01600
Br2905     Br  0.67176598  0.89550182  0.81981667    -0.01500
Br2906     Br  0.70567379  0.88119397  0.86992628    -0.01500
C2907       C  0.75298118  0.76649320  0.73169476    -0.02600
C2908       C  0.77374229  0.78552251  0.71558577     0.07100
C2909       C  0.79245937  0.80411689  0.73528216    -0.02700
C2910       C  0.79042957  0.80355662  0.77103038    -0.02700
C2911       C  0.76946415  0.78471366  0.78695927     0.07200
C2912       C  0.75085764  0.76608443  0.76726599    -0.02900
Br2913     Br  0.72216868  0.74018480  0.78919729    -0.01500
Br2914     Br  0.72755719  0.74058844  0.70503279    -0.01600
Br2915     Br  0.81616526  0.82845217  0.79850670    -0.01500
Br2916     Br  0.82031963  0.83063970  0.71301236    -0.01500
C2917       C  0.77993913  0.85441169  0.51514925    -0.02600
C2918       C  0.76460944  0.83056285  0.50251313     0.07100
C2919       C  0.74687004  0.82655124  0.47758052    -0.02700
C2920       C  0.74389905  0.84607019  0.46633346    -0.02700
C2921       C  0.75854685  0.86970905  0.48004943     0.07200
C2922       C  0.77656500  0.87376084  0.50455454    -0.02900
Br2923     Br  0.79549548  0.90537463  0.52581984    -0.01500
Br2924     Br  0.80648363  0.86101084  0.54598572    -0.01600
Br2925     Br  0.71981909  0.84027041  0.43181354    -0.01500
Br2926     Br  0.72590051  0.79427775  0.45957437    -0.01500
C2927       C  0.66913362  0.73431731  0.55361786    -0.02600
C2928       C  0.68089239  0.74138151  0.58557030     0.07100
C2929       C  0.66672009  0.73804580  0.61497160    -0.02700
C2930       C  0.64087055  0.72458943  0.61296142    -0.02700
C2931       C  0.62928669  0.71473545  0.58150559     0.07200
C2932       C  0.64340852  0.72089952  0.55160770    -0.02900
Br2933     Br  0.62757681  0.70819396  0.50844466    -0.01500
Br2934     Br  0.68847106  0.74070733  0.51285320    -0.01600
Br2935     Br  0.62124610  0.71732390  0.65365338    -0.01500
Br2936     Br  0.68264880  0.74982262  0.65820739    -0.01500
C2937       C  0.65344795  0.52712458  0.06967454    -0.02600
C2938       C  0.65144611  0.54536663  0.05173142     0.07100
C2939       C  0.65284260  0.56530976  0.06971668    -0.02700
C2940       C  0.65711329  0.56757822  0.10495170    -0.02700
C2941       C  0.65930347  0.54950523  0.12289020     0.07200
C2942       C  0.65768273  0.52935533  0.10515974    -0.02900
Br2943     Br  0.66150127  0.50506585  0.12969184    -0.01500
Br2944     Br  0.65000596  0.49901265  0.04561651    -0.01600
Br2945     Br  0.66117031  0.59624667  0.12827219    -0.01500
Br2946     Br  0.64726641  0.58887724  0.04659109    -0.01500
C2947       C  0.58175281  0.49091880  0.38192631    -0.02600
C2948       C  0.56176018  0.47907867  0.35920928     0.07100
C2949       C  0.56386256  0.48899516  0.32649527    -0.02700
C2950       C  0.58509865  0.51078288  0.31701597    -0.02700
C2951       C  0.60647290  0.52108468  0.33778083     0.07200
C2952       C  0.60430696  0.51119290  0.37098312    -0.02900
Br2953     Br  0.63172411  0.52474345  0.40198666    -0.01500
Br2954     Br  0.57777706  0.47994299  0.42856482    -0.01600
Br2955     Br  0.58324620  0.52759210  0.27694545    -0.01500
Br2956     Br  0.53834247  0.47167395  0.29321650    -0.01500
C2957       C  0.78079412  0.67110819  0.39810412    -0.02600
C2958       C  0.75616992  0.65946366  0.38641702     0.07100
C2959       C  0.74147758  0.66959978  0.39613268    -0.02700
C2960       C  0.74953023  0.68780797  0.42136070    -0.02700
C2961       C  0.77380273  0.69878466  0.43385378     0.07200
C2962       C  0.78971950  0.69119072  0.42063974    -0.02900
Br2963     Br  0.82407276  0.70881707  0.43294352    -0.01500
Br2964     Br  0.80267539  0.65967588  0.38483112    -0.01600
Br2965     Br  0.72593789  0.69545693  0.44060757    -0.01500
Br2966     Br  0.71141056  0.66107895  0.37242873    -0.01500
C2967       C  0.59160485  0.61968118  0.22401855    -0.02600
C2968       C  0.58886065  0.62761103  0.25649779     0.07100
C2969       C  0.59685237  0.62022836  0.28524351    -0.02700
C2970       C  0.61094318  0.60866183  0.28122443    -0.02700
C2971       C  0.61671818  0.60388167  0.24838389     0.07200
C2972       C  0.60560417  0.60796435  0.21991323    -0.02900
Br2973     Br  0.61101401  0.59911876  0.17523030    -0.01500
Br2974     Br  0.57747151  0.62654040  0.18500403    -0.01600
Br2975     Br  0.62413378  0.60117809  0.32069164    -0.01500
Br2976     Br  0.58927525  0.62684476  0.32999253    -0.01500
C2977       C  0.80306236  0.55615165  0.29551144    -0.02600
C2978       C  0.79763851  0.57243076  0.31325825     0.07100
C2979       C  0.81288543  0.58570955  0.34090913    -0.02700
C2980       C  0.83304240  0.58295180  0.35033684    -0.02700
C2981       C  0.83675393  0.56469427  0.33518142     0.07200
C2982       C  0.82162220  0.55145906  0.30731075    -0.02900
Br2983     Br  0.82500033  0.52582102  0.28603970    -0.01500
Br2984     Br  0.78612713  0.54121036  0.25359252    -0.01600
Br2985     Br  0.85657383  0.60569938  0.38262374    -0.01500
Br2986     Br  0.80521427  0.60624071  0.36833924    -0.01500
C2987       C  0.17250016  0.73456334  0.14875783    -0.02600
C2988       C  0.14859274  0.72409635  0.16246590     0.07100
C2989       C  0.14381449  0.73705182  0.18789697    -0.02700
C2990       C  0.16254327  0.76036285  0.19875058    -0.02700
C2991       C  0.18598686  0.77132573  0.18353175     0.07200
C2992       C  0.19080037  0.75820052  0.15849978    -0.02900
Br2993     Br  0.22226031  0.77282375  0.13615680    -0.01500
Br2994     Br  0.18091060  0.71586814  0.11817557    -0.01600
Br2995     Br  0.15650232  0.77674936  0.23581648    -0.01500
Br2996     Br  0.11158530  0.72337671  0.20752261    -0.01500
C2997       C  0.98445796  0.54569123  0.26546921    -0.02600
C2998       C  0.97481862  0.55976771  0.27904342     0.07100
C2999       C  0.98435319  0.58407903  0.26749912    -0.02700
C3000       C  0.00352318  0.59424590  0.24319716    -0.02700
C3001       C  0.01325874  0.58011931  0.22953824     0.07200
C3002       C  0.00346787  0.55573860  0.24111361    -0.02900
Br3003     Br  0.01626238  0.53563172  0.22494449    -0.01500
Br3004     Br  0.97049786  0.51180203  0.27855764    -0.01600
Br3005     Br  0.01536267  0.62732463  0.22787117    -0.01500
Br3006     Br  0.97156876  0.60397842  0.28505467    -0.01500
C3007       C  0.83317700  0.79079599  0.98853907    -0.02600
C3008       C  0.80920847  0.77466691  0.00049997     0.07100
C3009       C  0.80564867  0.75674693  0.02478942    -0.02700
C3010       C  0.82569490  0.75419821  0.03560307    -0.02700
C3011       C  0.84957831  0.76991212  0.02272900     0.07200
C3012       C  0.85312373  0.78825458  0.99918453    -0.02900
Br3013     Br  0.88502286  0.80898542  0.97919800    -0.01500
Br3014     Br  0.83916107  0.81744464  0.95851815    -0.01600
Br3015     Br  0.82027877  0.72922440  0.06837856    -0.01500
Br3016     Br  0.77334636  0.73541877  0.04286283    -0.01500
C3017       C  0.07186775  0.87414694  0.00705403    -0.02600
C3018       C  0.08501937  0.87074593  0.98049746     0.07100
C3019       C  0.07436651  0.84797311  0.96352936    -0.02700
C3020       C  0.05142714  0.82849196  0.97413580    -0.02700
C3021       C  0.03860687  0.83175868  0.00129835     0.07200
C3022       C  0.04842318  0.85509083  0.01637600    -0.02900
Br3023     Br  0.02865240  0.86174038  0.04744615    -0.01500
Br3024     Br  0.08638610  0.90434839  0.03240652    -0.01600
Br3025     Br  0.03779198  0.79748137  0.95112406    -0.01500
Br3026     Br  0.09063460  0.84367141  0.92456268    -0.01500
C3027       C  0.81415996  0.64358212  0.16128937    -0.02600
C3028       C  0.80277062  0.65241643  0.18365528     0.07100
C3029       C  0.80983339  0.67735125  0.18350550    -0.02700
C3030       C  0.82860533  0.69350887  0.16163571    -0.02700
C3031       C  0.84024853  0.68479335  0.13966826     0.07200
C3032       C  0.83301296  0.65980305  0.13949511    -0.02900
Br3033     Br  0.85012184  0.64806037  0.11136905    -0.01500
Br3034     Br  0.80469944  0.60939220  0.16147200    -0.01600
Br3035     Br  0.83841566  0.72773984  0.16169925    -0.01500
Br3036     Br  0.79303367  0.68928395  0.21196180    -0.01500
C3037       C  0.03806312  0.73352070  0.05060770    -0.02600
C3038       C  0.03041037  0.73754070  0.08260867     0.07100
C3039       C  0.03855404  0.73150518  0.11237667    -0.02700
C3040       C  0.05110946  0.71832864  0.11015572    -0.02700
C3041       C  0.05593141  0.71144751  0.07809686     0.07200
C3042       C  0.05076906  0.72043374  0.04832490    -0.02900
Br3043     Br  0.05923596  0.71302637  0.00453518    -0.01500
Br3044     Br  0.02967901  0.74467420  0.00984961    -0.01600
Br3045     Br  0.05963359  0.70768820  0.15122581    -0.01500
Br3046     Br  0.03077987  0.73967713  0.15610341    -0.01500
C3047       C  0.84900251  0.53399297  0.59928119    -0.02600
C3048       C  0.86682177  0.55361674  0.61871931     0.07100
C3049       C  0.88858850  0.57149092  0.60311487    -0.02700
C3050       C  0.89307156  0.56925934  0.56866864    -0.02700
C3051       C  0.87528090  0.54979479  0.54911913     0.07200
C3052       C  0.85346676  0.53180409  0.56460240    -0.02900
Br3053     Br  0.83047870  0.50364690  0.53872848    -0.01500
Br3054     Br  0.81845470  0.51049860  0.62011131    -0.01600
Br3055     Br  0.92414173  0.59236044  0.54848352    -0.01500
Br3056     Br  0.91137893  0.60021985  0.62818366    -0.01500
C3057       C  0.73157721  0.56583772  0.79215683    -0.02600
C3058       C  0.75202677  0.57491025  0.81403141     0.07100
C3059       C  0.75034428  0.58263652  0.84700476    -0.02700
C3060       C  0.72849528  0.58142337  0.85808406    -0.02700
C3061       C  0.70700608  0.57005995  0.83753807     0.07200
C3062       C  0.70909631  0.56317738  0.80377307    -0.02900
Br3063     Br  0.68164816  0.54978409  0.77272578    -0.01500
Br3064     Br  0.73456437  0.55723198  0.74587167    -0.01600
Br3065     Br  0.72924061  0.59718217  0.90075673    -0.01500
Br3066     Br  0.77728770  0.59275299  0.87839239    -0.01500
C3067       C  0.79935695  0.64360079  0.66457935    -0.02600
C3068       C  0.82056096  0.65228823  0.68492071     0.07100
C3069       C  0.83865975  0.67722308  0.68415846    -0.02700
C3070       C  0.83553796  0.69337233  0.66311453    -0.02700
C3071       C  0.81461389  0.68456368  0.64226817     0.07200
C3072       C  0.79650297  0.65971522  0.64296933    -0.02900
Br3073     Br  0.76724095  0.64812333  0.61571117    -0.01500
Br3074     Br  0.77360329  0.60994947  0.66784721    -0.01600
Br3075     Br  0.86004874  0.72766843  0.66262761    -0.01500
Br3076     Br  0.86827910  0.68928281  0.71075874    -0.01500
C3077       C  0.86253193  0.66618760  0.89823344    -0.02600
C3078       C  0.87683229  0.65607359  0.88647176     0.07100
C3079       C  0.90119963  0.66618812  0.89829839    -0.02700
C3080       C  0.91075387  0.68531403  0.92237419    -0.02700
C3081       C  0.89644451  0.69533866  0.93421836     0.07200
C3082       C  0.87240206  0.68592665  0.92142888    -0.02900
Br3083     Br  0.85307406  0.70061106  0.93463690    -0.01500
Br3084     Br  0.82881911  0.65237757  0.88432158    -0.01600
Br3085     Br  0.94314138  0.69643322  0.94045068    -0.01500
Br3086     Br  0.92235153  0.65480800  0.88068283    -0.01500
C3087       C  0.98579870  0.76668799  0.23171100    -0.02600
C3088       C  0.98357368  0.78431489  0.21262729     0.07100
C3089       C  0.98456326  0.80457558  0.22924895    -0.02700
C3090       C  0.98862329  0.80757277  0.26469544    -0.02700
C3091       C  0.99154769  0.79022450  0.28349328     0.07200
C3092       C  0.99036026  0.76994557  0.26684299    -0.02900
Br3093     Br  0.99629576  0.74721697  0.29196255    -0.01500
Br3094     Br  0.98119297  0.73729512  0.21006720    -0.01600
Br3095     Br  0.98980474  0.83507463  0.28774070    -0.01500
Br3096     Br  0.97942250  0.82759838  0.20349049    -0.01500
C3097       C  0.13780954  0.91077291  0.50336229    -0.02600
C3098       C  0.12261318  0.91016147  0.47646359     0.07100
C3099       C  0.12832957  0.93252423  0.46046951    -0.02700
C3100       C  0.14859597  0.95481572  0.47169190    -0.02700
C3101       C  0.16454292  0.95483657  0.49704612     0.07200
C3102       C  0.15940493  0.93245444  0.51183491    -0.02900
Br3103     Br  0.18227369  0.93111851  0.54346746    -0.01500
Br3104     Br  0.12740368  0.88297189  0.53259768    -0.01600
Br3105     Br  0.15325590  0.98535626  0.45407096    -0.01500
Br3106     Br  0.10891077  0.93318500  0.42299553    -0.01500
C3107       C  0.92769196  0.79169886  0.48367852    -0.02600
C3108       C  0.93808291  0.77824416  0.49743906     0.07100
C3109       C  0.92552780  0.76153564  0.52410991    -0.02700
C3110       C  0.90264466  0.75786737  0.53594335    -0.02700
C3111       C  0.89155926  0.77012534  0.52045963     0.07200
C3112       C  0.90434084  0.78709593  0.49425760    -0.02900
Br3113     Br  0.88936714  0.80329584  0.47123319    -0.01500
Br3114     Br  0.94616166  0.81793519  0.45193378    -0.01600
Br3115     Br  0.88702127  0.73684304  0.57446366    -0.01500
Br3116     Br  0.93907394  0.74297960  0.54394977    -0.01500
C3117       C  0.14598243  0.82261641  0.35333209    -0.02600
C3118       C  0.13689184  0.83894895  0.35161011     0.07100
C3119       C  0.14750422  0.85873751  0.32861607    -0.02700
C3120       C  0.16647303  0.86173660  0.30662279    -0.02700
C3121       C  0.17497728  0.84495128  0.30747141     0.07200
C3122       C  0.16495694  0.82560770  0.33131356    -0.02900
Br3123     Br  0.17712375  0.80298282  0.33366798    -0.01500
Br3124     Br  0.13212596  0.79573280  0.38516184    -0.01600
Br3125     Br  0.18213413  0.88998142  0.27729338    -0.01500
Br3126     Br  0.13713068  0.88274416  0.32888457    -0.01500
C3127       C  0.94263986  0.67957799  0.38098651    -0.02600
C3128       C  0.94992066  0.69470650  0.40989720     0.07100
C3129       C  0.94284696  0.68393934  0.44248909    -0.02700
C3130       C  0.93093858  0.65832707  0.44632452    -0.02700
C3131       C  0.92591127  0.64327549  0.41755216     0.07200
C3132       C  0.93117109  0.65400877  0.38473522    -0.02900
Br3133     Br  0.92542964  0.63404210  0.34482601    -0.01500
Br3134     Br  0.94981076  0.69408817  0.33635138    -0.01600
Br3135     Br  0.92441614  0.64404389  0.49116659    -0.01500
Br3136     Br  0.95139882  0.70444636  0.48224101    -0.01500
C3137       C  0.08016611  0.67064899  0.89781546    -0.02600
C3138       C  0.10126242  0.67525662  0.87928877     0.07100
C3139       C  0.12103415  0.67562625  0.89679944    -0.02700
C3140       C  0.11962710  0.67134708  0.93231914    -0.02700
C3141       C  0.09831907  0.66630010  0.95054672     0.07200
C3142       C  0.07838206  0.66543066  0.93297268    -0.02900
Br3143     Br  0.04835235  0.65658209  0.95709674    -0.01500
Br3144     Br  0.05418452  0.67283075  0.87543524    -0.01600
Br3145     Br  0.14666627  0.67198243  0.95624231    -0.01500
Br3146     Br  0.15018455  0.68233634  0.87206589    -0.01500
C3147       C  0.25758112  0.85258524  0.69036684    -0.02600
C3148       C  0.27046802  0.84812459  0.66445332     0.07100
C3149       C  0.26008627  0.82431143  0.65063630    -0.02700
C3150       C  0.23649704  0.80586341  0.66047915    -0.02700
C3151       C  0.22352520  0.81030206  0.68609879     0.07200
C3152       C  0.23410856  0.83381685  0.70088133    -0.02900
Br3153     Br  0.21642271  0.84035326  0.73557127    -0.01500
Br3154     Br  0.27187999  0.88423643  0.71168172    -0.01600
Br3155     Br  0.22112150  0.77496871  0.63669287    -0.01500
Br3156     Br  0.27895286  0.81604273  0.62020448    -0.01500
C3157       C  0.99959337  0.61956336  0.71485509    -0.02600
C3158       C  0.01195003  0.62785076  0.74625331     0.07100
C3159       C  0.99847569  0.61981732  0.77669398    -0.02700
C3160       C  0.97267535  0.60729806  0.77573300    -0.02700
C3161       C  0.96033189  0.60120441  0.74412725     0.07200
C3162       C  0.97384982  0.60530778  0.71399681    -0.02900
Br3163     Br  0.95693606  0.59339945  0.67141952    -0.01500
Br3164     Br  0.01760279  0.63029026  0.67281546    -0.01600
Br3165     Br  0.95444575  0.60115445  0.81759533    -0.01500
Br3166     Br  0.01530150  0.62831187  0.81956483    -0.01500
C3167       C  0.11667258  0.78710978  0.58843443    -0.02600
C3168       C  0.10249545  0.76270926  0.59960406     0.07100
C3169       C  0.07891287  0.74781072  0.58550910    -0.02700
C3170       C  0.06936996  0.75746127  0.56149975    -0.02700
C3171       C  0.08310154  0.78220730  0.55136569     0.07200
C3172       C  0.10703650  0.79674778  0.56461372    -0.02900
Br3173     Br  0.12677515  0.83037959  0.55174158    -0.01500
Br3174     Br  0.14984880  0.80746133  0.60494114    -0.01600
Br3175     Br  0.03763372  0.73604933  0.54183280    -0.01500
Br3176     Br  0.05864604  0.71436510  0.60006430    -0.01500
C3177       C  0.13283822  0.82950092  0.80171978    -0.02600
C3178       C  0.14870733  0.81998718  0.80483946     0.07100
C3179       C  0.16871798  0.83076431  0.82751020    -0.02700
C3180       C  0.17237731  0.85055237  0.84799144    -0.02700
C3181       C  0.15602595  0.85962348  0.84574014     0.07200
C3182       C  0.13641548  0.84922968  0.82222926    -0.02900
Br3183     Br  0.11364979  0.86119511  0.81903377    -0.01500
Br3184     Br  0.10556395  0.81483435  0.77036033    -0.01600
Br3185     Br  0.20051440  0.86594720  0.87775374    -0.01500
Br3186     Br  0.19171764  0.81901291  0.82930840    -0.01500
C3187       C  0.27118978  0.46113767  0.18732479    -0.02600
C3188       C  0.27158350  0.44504016  0.16282347     0.07100
C3189       C  0.24904983  0.42609941  0.14978330    -0.02700
C3190       C  0.22655248  0.42351690  0.16105344    -0.02700
C3191       C  0.22615486  0.43870163  0.18730666     0.07200
C3192       C  0.24876291  0.45732435  0.20062527    -0.02900
Br3193     Br  0.24977619  0.47725436  0.23851566    -0.01500
Br3194     Br  0.30131083  0.49000867  0.20058563    -0.01600
Br3195     Br  0.19657239  0.40026729  0.13831083    -0.01500
Br3196     Br  0.24858032  0.40308029  0.11688274    -0.01500
C3197       C  0.08157846  0.52393697  0.17855048    -0.02600
C3198       C  0.09158151  0.53472426  0.14682408     0.07100
C3199       C  0.10186281  0.52399625  0.12587340    -0.02700
C3200       C  0.10322892  0.50347935  0.13741690    -0.02700
C3201       C  0.09291694  0.49257851  0.16936084     0.07200
C3202       C  0.08048850  0.50208220  0.18843470    -0.02900
Br3203     Br  0.05981987  0.48428135  0.22668284    -0.01500
Br3204     Br  0.07190465  0.54054717  0.21067139    -0.01600
Br3205     Br  0.11956004  0.49106883  0.10894667    -0.01500
Br3206     Br  0.11352911  0.53699025  0.08090804    -0.01500
C3207       C  0.17445947  0.34604676  0.35984012    -0.02600
C3208       C  0.15626387  0.32115532  0.35992340     0.07100
C3209       C  0.13559721  0.31284551  0.33852279    -0.02700
C3210       C  0.13298624  0.32942552  0.31745732    -0.02700
C3211       C  0.15115271  0.35436984  0.31756732     0.07200
C3212       C  0.17185909  0.36261047  0.33887876    -0.02900
Br3213     Br  0.19737255  0.39654754  0.33838778    -0.01500
Br3214     Br  0.20392572  0.35733933  0.38661470    -0.01600
Br3215     Br  0.10389421  0.31805909  0.28985025    -0.01500
Br3216     Br  0.11054245  0.27878130  0.33867740    -0.01500
C3217       C  0.13781372  0.24909132  0.01594130    -0.02600
C3218       C  0.12551738  0.23799055  0.98543539     0.07100
C3219       C  0.13374419  0.22500680  0.96539450    -0.02700
C3220       C  0.15319942  0.22180364  0.97674380    -0.02700
C3221       C  0.16526060  0.23233787  0.00800952     0.07200
C3222       C  0.15819129  0.24721808  0.02640723    -0.02900
Br3223     Br  0.17740792  0.26719807  0.06433141    -0.01500
Br3224     Br  0.12594595  0.26593381  0.04457625    -0.01600
Br3225     Br  0.16244120  0.20261888  0.94861432    -0.01500
Br3226     Br  0.11902469  0.21246616  0.92135158    -0.01500
C3227       C  0.93645735  0.18190572  0.03777442    -0.02600
C3228       C  0.93844830  0.19185203  0.00464326     0.07100
C3229       C  0.91724821  0.18108204  0.98358509    -0.02700
C3230       C  0.89644534  0.15885025  0.99280534    -0.02700
C3231       C  0.89464747  0.14855259  0.02520722     0.07200
C3232       C  0.91443241  0.16076838  0.04813580    -0.02900
Br3233     Br  0.91108130  0.14879775  0.09412615    -0.01500
Br3234     Br  0.96343100  0.19651128  0.06954104    -0.01600
Br3235     Br  0.87143576  0.14118203  0.95921091    -0.01500
Br3236     Br  0.91531636  0.19725125  0.94273128    -0.01500
C3237       C  0.11540998  0.36633063  0.07746946    -0.02600
C3238       C  0.10752160  0.36034689  0.11134404     0.07100
C3239       C  0.09096259  0.33577311  0.12005250    -0.02700
C3240       C  0.08231690  0.31731914  0.09509285    -0.02700
C3241       C  0.08965100  0.32321683  0.06074825     0.07200
C3242       C  0.10636569  0.34800027  0.05214773    -0.02900
Br3243     Br  0.11575714  0.35795741  0.00555242    -0.01500
Br3244     Br  0.13897400  0.39975720  0.06607684    -0.01600
Br3245     Br  0.06076623  0.28384921  0.10882539    -0.01500
Br3246     Br  0.07880603  0.32718789  0.16608742    -0.01500
C3247       C  0.14327724  0.34509375  0.85181331    -0.02600
C3248       C  0.13761144  0.32074020  0.85642888     0.07100
C3249       C  0.15183522  0.31210297  0.84036645    -0.02700
C3250       C  0.17125118  0.32761729  0.81881529    -0.02700
C3251       C  0.17667803  0.35186623  0.81386438     0.07200
C3252       C  0.16312185  0.36078480  0.83104683    -0.02900
Br3253     Br  0.17215350  0.39468782  0.82658084    -0.01500
Br3254     Br  0.12344735  0.35677479  0.87302140    -0.01600
Br3255     Br  0.19138088  0.31618914  0.79774584    -0.01500
Br3256     Br  0.14555464  0.27946563  0.84958711    -0.01500
C3257       C  0.09127507  0.43771059  0.40360161    -0.02600
C3258       C  0.11147705  0.45633456  0.38593931     0.07100
C3259       C  0.13044479  0.47566765  0.40448597    -0.02700
C3260       C  0.12819592  0.47736212  0.44003532    -0.02700
C3261       C  0.10762570  0.45903270  0.45748545     0.07200
C3262       C  0.08918726  0.43920673  0.43907869    -0.02900
Br3263     Br  0.06067202  0.41419305  0.46232996    -0.01500
Br3264     Br  0.06751965  0.40884449  0.37963898    -0.01600
Br3265     Br  0.15319819  0.50475375  0.46504157    -0.01500
Br3266     Br  0.16011379  0.49887037  0.38143620    -0.01500
C3267       C  0.11810537  0.61727237  0.67599056    -0.02600
C3268       C  0.10043411  0.62343345  0.66592863     0.07100
C3269       C  0.08089380  0.60728395  0.64482183    -0.02700
C3270       C  0.07776836  0.58414561  0.63652830    -0.02700
C3271       C  0.09461343  0.57720281  0.64861991     0.07200
C3272       C  0.11530035  0.59434996  0.66750114    -0.02900
Br3273     Br  0.13954133  0.58654502  0.68361759    -0.01500
Br3274     Br  0.14684428  0.64096073  0.70050223    -0.01600
Br3275     Br  0.05078050  0.56253418  0.60740629    -0.01500
Br3276     Br  0.05857026  0.61691581  0.62684435    -0.01500
C3277       C  0.15484936  0.44784673  0.70307553    -0.02600
C3278       C  0.14256422  0.43659355  0.67224793     0.07100
C3279       C  0.15114923  0.42321719  0.65332077    -0.02700
C3280       C  0.17292819  0.42359607  0.66272761    -0.02700
C3281       C  0.18440381  0.43366025  0.69407439     0.07200
C3282       C  0.17501276  0.44559883  0.71442885    -0.02900
Br3283     Br  0.18986357  0.45932278  0.75787541    -0.01500
Br3284     Br  0.14560933  0.46783747  0.72929664    -0.01600
Br3285     Br  0.18927364  0.41408849  0.62980670    -0.01500
Br3286     Br  0.13268649  0.40293619  0.61522897    -0.01500
C3287       C  0.01558764  0.52212262  0.50930329    -0.02600
C3288       C  0.00758233  0.50137734  0.53011006     0.07100
C3289       C  0.98295245  0.48247207  0.52898626    -0.02700
C3290       C  0.96636647  0.48431943  0.50693631    -0.02700
C3291       C  0.97471290  0.50446699  0.48458111     0.07200
C3292       C  0.99935621  0.52347463  0.48611264    -0.02900
Br3293     Br  0.01079466  0.55222465  0.45804016    -0.01500
Br3294     Br  0.04869458  0.54917650  0.51360183    -0.01600
Br3295     Br  0.93227991  0.45904298  0.50734776    -0.01500
Br3296     Br  0.97224237  0.45337273  0.55606570    -0.01500
C3297       C  0.86880909  0.48029569  0.87192250    -0.02600
C3298       C  0.88763421  0.47657244  0.85831651     0.07100
C3299       C  0.90337639  0.49314081  0.83321717    -0.02700
C3300       C  0.90030034  0.51268372  0.82202611    -0.02700
C3301       C  0.88074257  0.51554280  0.83424655     0.07200
C3302       C  0.86519216  0.49935133  0.85959698    -0.02900
Br3303     Br  0.83801337  0.50238308  0.87641952    -0.01500
Br3304     Br  0.84814489  0.46005619  0.90848991    -0.01600
Br3305     Br  0.92376068  0.53616081  0.79036513    -0.01500
Br3306     Br  0.92828884  0.48848240  0.81144468    -0.01500
C3307       C  0.80636360  0.24420457  0.84784896    -0.02600
C3308       C  0.79519638  0.24299168  0.81621195     0.07100
C3309       C  0.80542593  0.26419377  0.79558215    -0.02700
C3310       C  0.82586873  0.28636333  0.80701022    -0.02700
C3311       C  0.83745754  0.28736019  0.83846814     0.07200
C3312       C  0.82813434  0.26546674  0.85774085    -0.02900
Br3313     Br  0.84560893  0.26354100  0.89709330    -0.01500
Br3314     Br  0.79008315  0.21783288  0.88002706    -0.01600
Br3315     Br  0.83664809  0.31540115  0.77982863    -0.01500
Br3316     Br  0.79157424  0.26306897  0.75133285    -0.01500
C3317       C  0.93272880  0.29792375  0.88800238    -0.02600
C3318       C  0.92339535  0.29960349  0.91989422     0.07100
C3319       C  0.92566386  0.28694022  0.94785811    -0.02700
C3320       C  0.94027719  0.27579619  0.94505220    -0.02700
C3321       C  0.95238505  0.27713486  0.91409714     0.07200
C3322       C  0.94769446  0.28736228  0.88529440    -0.02900
Br3323     Br  0.96395536  0.28938021  0.84294225    -0.01500
Br3324     Br  0.92632582  0.31180969  0.84835185    -0.01600
Br3325     Br  0.94602235  0.26128912  0.98455531    -0.01500
Br3326     Br  0.91001340  0.28621649  0.99023662    -0.01500
C3327       C  0.99611779  0.44901523  0.79180146    -0.02600
C3328       C  0.97122665  0.43721251  0.78116501     0.07100
C3329       C  0.96591173  0.43468019  0.74614302    -0.02700
C3330       C  0.98500105  0.44238198  0.72203592    -0.02700
C3331       C  0.00992457  0.45435890  0.73254211     0.07200
C3332       C  0.01529777  0.45779236  0.76761373    -0.02900
Br3333     Br  0.04899705  0.47494254  0.78265221    -0.01500
Br3334     Br  0.00447889  0.45248341  0.83957704    -0.01600
Br3335     Br  0.97636404  0.43425855  0.67477143    -0.01500
Br3336     Br  0.93248692  0.42196731  0.73116966    -0.01500
C3337       C  0.99976944  0.49246336  0.98283068    -0.02600
C3338       C  0.97460589  0.48468995  0.98515987     0.07100
C3339       C  0.96624943  0.49570739  0.00884709    -0.02700
C3340       C  0.98304553  0.51469030  0.02984095    -0.02700
C3341       C  0.00829310  0.52273652  0.02718524     0.07200
C3342       C  0.01659939  0.51148593  0.00381519    -0.02900
Br3343     Br  0.05103307  0.52161468  0.00134290    -0.01500
Br3344     Br  0.01110997  0.47626377  0.95224779    -0.01600
Br3345     Br  0.97136336  0.53057258  0.06053907    -0.01500
Br3346     Br  0.93178180  0.48555427  0.01156999    -0.01500
C3347       C  0.98866047  0.23628475  0.73559704    -0.02600
C3348       C  0.98686900  0.21562555  0.71906500     0.07100
C3349       C  0.98762281  0.19731052  0.73873214    -0.02700
C3350       C  0.99025656  0.19977987  0.77446739    -0.02700
C3351       C  0.99257626  0.22071031  0.79059722     0.07200
C3352       C  0.99183202  0.23893783  0.77104701    -0.02900
Br3353     Br  0.99605852  0.26810910  0.79283265    -0.01500
Br3354     Br  0.98575457  0.26074357  0.71021980    -0.01600
Br3355     Br  0.99073461  0.17468101  0.80177757    -0.01500
Br3356     Br  0.98599757  0.16936772  0.71655572    -0.01500
C3357       C  0.84576687  0.08151644  0.53729465    -0.02600
C3358       C  0.85147618  0.10406838  0.52210944     0.07100
C3359       C  0.83673824  0.10371903  0.49460442    -0.02700
C3360       C  0.81694454  0.08132180  0.48260320    -0.02700
C3361       C  0.81267854  0.05865194  0.49592660     0.07200
C3362       C  0.82751262  0.05908846  0.52328218    -0.02900
Br3363     Br  0.82450633  0.02905093  0.54025873    -0.01500
Br3364     Br  0.86146479  0.08103736  0.57921638    -0.01600
Br3365     Br  0.79502426  0.08209644  0.44890106    -0.01500
Br3366     Br  0.84427783  0.13373882  0.47169071    -0.01500
C3367       C  0.04704259  0.21530076  0.51209400    -0.02600
C3368       C  0.03918484  0.23164777  0.50150750     0.07100
C3369       C  0.05304977  0.24948523  0.47679436    -0.02700
C3370       C  0.07595849  0.25282872  0.46596161    -0.02700
C3371       C  0.08461181  0.23750916  0.47842239     0.07200
C3372       C  0.06962455  0.21828250  0.50083541    -0.02900
Br3373     Br  0.08035939  0.19657321  0.51800013    -0.01500
Br3374     Br  0.02597410  0.18750219  0.54025675    -0.01600
Br3375     Br  0.09514896  0.27812696  0.43335570    -0.01500
Br3376     Br  0.04052966  0.26891844  0.45695344    -0.01500
C3377       C  0.84228910  0.20280202  0.65857132    -0.02600
C3378       C  0.84746791  0.18367917  0.65457369     0.07100
C3379       C  0.83289290  0.16117237  0.67108029    -0.02700
C3380       C  0.81291836  0.15757400  0.69109448    -0.02700
C3381       C  0.80720272  0.17636040  0.69422352     0.07200
C3382       C  0.82188707  0.19900750  0.67804278    -0.02900
Br3383     Br  0.81424619  0.22483179  0.68328956    -0.01500
Br3384     Br  0.86366107  0.23434466  0.63869809    -0.01600
Br3385     Br  0.79266425  0.12635310  0.71278692    -0.01500
Br3386     Br  0.83979593  0.13484790  0.66518532    -0.01500
C3387       C  0.04135828  0.32793507  0.62240750    -0.02600
C3388       C  0.03390585  0.31345104  0.59275446     0.07100
C3389       C  0.04206789  0.32499706  0.56080165    -0.02700
C3390       C  0.05524977  0.35074104  0.55834836    -0.02700
C3391       C  0.05916295  0.36505069  0.58762452     0.07200
C3392       C  0.05371892  0.35365524  0.61986443    -0.02900
Br3393     Br  0.06215083  0.37343436  0.66044856    -0.01500
Br3394     Br  0.03290594  0.31248979  0.66632749    -0.01600
Br3395     Br  0.06671385  0.36650302  0.51489549    -0.01500
Br3396     Br  0.03296912  0.30549073  0.52012291    -0.01500
C3397       C  0.85538332  0.34418311  0.07287949    -0.02600
C3398       C  0.87304837  0.34294412  0.05213287     0.07100
C3399       C  0.89012267  0.33744780  0.06690733    -0.02700
C3400       C  0.88940871  0.33303399  0.10205058    -0.02700
C3401       C  0.87125777  0.33346059  0.12249855     0.07200
C3402       C  0.85402595  0.33869082  0.10784877    -0.02900
Br3403     Br  0.82804283  0.33726135  0.13555209    -0.01500
Br3404     Br  0.83307236  0.35338734  0.05337045    -0.01600
Br3405     Br  0.91337765  0.32638485  0.12243881    -0.01500
Br3406     Br  0.91548004  0.33730045  0.03954327    -0.01500
C3407       C  0.70707386  0.17634349  0.30985107    -0.02600
C3408       C  0.70596735  0.15994823  0.33505631     0.07100
C3409       C  0.72813339  0.16294857  0.34871226    -0.02700
C3410       C  0.75091858  0.18289764  0.33893353    -0.02700
C3411       C  0.75218465  0.19892958  0.31288738     0.07200
C3412       C  0.72998850  0.19517933  0.29803949    -0.02900
Br3413     Br  0.73033034  0.21509703  0.26060443    -0.01500
Br3414     Br  0.67723358  0.17417648  0.29288626    -0.01600
Br3415     Br  0.77998956  0.18923750  0.36398574    -0.01500
Br3416     Br  0.72774649  0.13918260  0.38006406    -0.01500
C3417       C  0.87219327  0.39490668  0.32438430    -0.02600
C3418       C  0.88621436  0.38512451  0.33820056     0.07100
C3419       C  0.90308082  0.39805360  0.36458754    -0.02700
C3420       C  0.90683323  0.42108578  0.37538589    -0.02700
C3421       C  0.89409239  0.43155851  0.35955430     0.07200
C3422       C  0.87678171  0.41827541  0.33396958    -0.02900
Br3423     Br  0.86022032  0.43263195  0.31022237    -0.01500
Br3424     Br  0.84498900  0.37549041  0.29422439    -0.01600
Br3425     Br  0.92882604  0.43795351  0.41268726    -0.01500
Br3426     Br  0.92116331  0.38452762  0.38599629    -0.01500
C3427       C  0.88519293  0.22507968  0.38629819    -0.02600
C3428       C  0.87278928  0.23793045  0.39497178     0.07100
C3429       C  0.87062920  0.24253869  0.42954174    -0.02700
C3430       C  0.88183432  0.23571233  0.45490806    -0.02700
C3431       C  0.89334204  0.22206591  0.44639818     0.07200
C3432       C  0.89463879  0.21648993  0.41200492    -0.02900
Br3433     Br  0.90897713  0.19667313  0.40007633    -0.01500
Br3434     Br  0.89130453  0.22067328  0.33930410    -0.01600
Br3435     Br  0.88332270  0.24737697  0.50084495    -0.01500
Br3436     Br  0.85137709  0.25729822  0.44254082    -0.01500
C3437       C  0.97869105  0.38859758  0.22208438    -0.02600
C3438       C  0.96447290  0.37761935  0.25133066     0.07100
C3439       C  0.97561422  0.38382299  0.28370211    -0.02700
C3440       C  0.00122049  0.39845741  0.28657645    -0.02700
C3441       C  0.01584221  0.40651631  0.25711396     0.07200
C3442       C  0.00446489  0.40271331  0.22490473    -0.02900
Br3443     Br  0.02441416  0.41408233  0.18440603    -0.01500
Br3444     Br  0.96305234  0.38207304  0.17811247    -0.01600
Br3445     Br  0.01658729  0.40500905  0.33065170    -0.01500
Br3446     Br  0.95588465  0.37021447  0.32399662    -0.01500
C3447       C  0.80503890  0.17594552  0.17032619    -0.02600
C3448       C  0.82729402  0.18959727  0.18818314     0.07100
C3449       C  0.84648111  0.18450218  0.18367044    -0.02700
C3450       C  0.84344440  0.16585458  0.16131783    -0.02700
C3451       C  0.82125674  0.15229807  0.14346076     0.07200
C3452       C  0.80188467  0.15702891  0.14840051    -0.02900
Br3453     Br  0.77050282  0.13651082  0.12698896    -0.01500
Br3454     Br  0.77865981  0.18283154  0.17642669    -0.01600
Br3455     Br  0.86972700  0.15888285  0.15484810    -0.01500
Br3456     Br  0.87739717  0.20383242  0.20661987    -0.01500
loop_ 
_geom_bond_atom_site_label_1 
_geom_bond_atom_site_label_2 
_geom_bond_distance 
_geom_bond_site_symmetry_2 
_ccdc_geom_bond_type 
Zr1           O2   2.442       .  S
Zr1           O3   2.459       .  S
Zr1           O4   2.438       .  S
Zr1           O7   2.455       .  S
Zr1           O9   2.389       .  S
Zr1          O10   2.374       .  S
Zr1          O11   2.418       .  S
Zr1          O12   2.411       .  S
O2           H58   0.990       .  S
O2           H66   0.990       .  S
O3           C23   1.287       .  A
O4           C25   1.285       .  A
O5          Zr15   2.389       .  S
O5           C24   1.274       .  A
O6          Zr14   2.463       .  S
O6           C25   1.291       .  A
O7           C24   1.286       .  A
O8          Zr16   2.418       .  S
O8           C23   1.280       .  A
O9          Zr14   2.403       .  S
O9          Zr16   2.387       .  S
O10         Zr15   2.380       .  S
O10         Zr16   2.372       .  S
O10          H45   0.966       .  S
O11         Zr14   2.406       .  S
O11         Zr31   2.370       .  S
O11          H48   0.962       .  S
O12         Zr15   2.394       .  S
O12         Zr31   2.413       .  S
Zr13         O38   2.438       .  S
Zr13         O32   2.442       .  S
Zr13         O40   2.471       .  S
Zr13         O28   2.435       .  S
Zr13         O19   2.410       .  S
Zr13         O20   2.416       .  S
Zr13         O21   2.385       .  S
Zr13         O22   2.379       .  S
Zr14         O33   2.437       .  S
Zr14         O26   2.435       .  S
Zr14         O27   2.471       .  S
Zr14         O20   2.406       .  S
Zr14         O21   2.399       .  S
Zr15         O17   2.434       .  S
Zr15         O39   2.438       .  S
Zr15         O41   2.381       .  S
Zr15         O19   2.393       .  S
Zr15         O22   2.396       .  S
Zr16         O42   2.436       .  S
Zr16         O43   2.436       .  S
Zr16         O18   2.438       .  S
Zr16         O19   2.406       .  S
Zr16         O20   2.383       .  S
O17          H54   0.990       .  S
O18          H49   0.990       .  S
O18          H63   0.990       .  S
O20          H46   0.973       .  S
O21         Zr31   2.374       .  S
O22         Zr31   2.359       .  S
O22          H47   0.970       .  S
C23        C3411   1.498       .  S
C24        C3448   1.468       .  S
C25        C3428   1.489       .  S
O26          H62   0.990       .  S
O27          C29   1.292       .  A
O28          C29   1.287       .  A
C29        C3418   1.496       .  S
O30         Zr31   2.435       .  S
O30          H59   0.989       .  S
Zr31         O34   2.438       .  S
Zr31         O35   2.440       .  S
Zr31         O36   2.423       .  S
O32          C37   1.283       .  A
O33          H50   0.990       .  S
O33          H65   0.990       .  S
O34          H51   0.990       .  S
O35          H55   0.990       .  S
O35          H64   0.991       .  S
O36          C37   1.281       .  A
C37        C3438   1.477       .  S
O38          H57   0.990       .  S
O38          H61   0.990       .  S
O39          H53   0.990       .  S
O39          H60   0.990       .  S
O40          C44   1.290       .  A
O41          C44   1.274       .  A
O42          H52   0.989       .  S
O43          H56   0.990       .  S
C44        C3401   1.466       .  S
Zr67         O68   2.441       .  S
Zr67         O69   2.463       .  S
Zr67         O70   2.437       .  S
Zr67         O73   2.455       .  S
Zr67         O75   2.389       .  S
Zr67         O76   2.378       .  S
Zr67         O77   2.423       .  S
Zr67         O78   2.403       .  S
O68         H124   0.990       .  S
O68         H132   0.990       .  S
O69          C89   1.287       .  A
O70          C91   1.284       .  A
O71         Zr81   2.396       .  S
O71          C90   1.277       .  A
O72         Zr80   2.454       .  S
O72          C91   1.289       .  A
O73          C90   1.287       .  A
O74         Zr82   2.442       .  S
O74          C89   1.285       .  A
O75         Zr80   2.408       .  S
O75         Zr82   2.384       .  S
O76         Zr81   2.387       .  S
O76         Zr82   2.372       .  S
O76         H111   0.968       .  S
O77         Zr80   2.404       .  S
O77         Zr97   2.380       .  S
O77         H114   0.963       .  S
O78         Zr81   2.386       .  S
O78         Zr97   2.398       .  S
Zr79        O104   2.438   1_655  S
Zr79         O98   2.479   1_655  S
Zr79        O106   2.486       .  S
Zr79         O94   2.438   1_655  S
Zr79         O85   2.419       .  S
Zr79         O86   2.427       .  S
Zr79         O87   2.384       .  S
Zr79         O88   2.377       .  S
Zr80         O99   2.437       .  S
Zr80         O92   2.433       .  S
Zr80         O93   2.468       .  S
Zr80         O86   2.401       .  S
Zr80         O87   2.389       .  S
Zr81         O83   2.436       .  S
Zr81        O105   2.438       .  S
Zr81        O107   2.398       .  S
Zr81         O85   2.385       .  S
Zr81         O88   2.391       .  S
Zr82        O108   2.433       .  S
Zr82        O109   2.440       .  S
Zr82         O84   2.441       .  S
Zr82         O85   2.413       .  S
Zr82         O86   2.386       .  S
O83         H120   0.990       .  S
O84         H115   0.990       .  S
O84         H129   0.990       .  S
O86         H112   0.963       .  S
O87         Zr97   2.376       .  S
O88         Zr97   2.363       .  S
O88         H113   0.959       .  S
C89        C3358   1.509       .  S
C90        C3378   1.468       .  S
C91        C3431   1.485       .  S
O92         H128   0.990       .  S
O93          C95   1.292   1_655  A
O94          C95   1.288       .  A
C95        C3368   1.491       .  S
O96         Zr97   2.435       .  S
O96         H125   0.990       .  S
Zr97        O100   2.438       .  S
Zr97        O101   2.438       .  S
Zr97        O102   2.415       .  S
O98         C103   1.292       .  A
O99         H116   0.990       .  S
O99         H131   0.990       .  S
O100        H117   0.990       .  S
O101        H121   0.990       .  S
O101        H130   0.990       .  S
O102        C103   1.279   1_655  A
C103       C3388   1.488       .  S
O104        H123   0.990       .  S
O104        H127   0.990       .  S
O105        H119   0.990       .  S
O105        H126   0.990       .  S
O106        C110   1.294       .  A
O107        C110   1.276       .  A
O108        H118   0.990       .  S
O109        H122   0.990       .  S
C110       C3348   1.480       .  S
Zr133       O134   2.445       .  S
Zr133       O135   2.460       .  S
Zr133       O136   2.440       .  S
Zr133       O139   2.448       .  S
Zr133       O141   2.391       .  S
Zr133       O142   2.375       .  S
Zr133       O143   2.424       .  S
Zr133       O144   2.407       .  S
O134        H190   0.989       .  S
O134        H198   0.990       .  S
O135        C155   1.287       .  A
O136        C157   1.284       .  A
O137       Zr147   2.385       .  S
O137        C156   1.274       .  A
O138       Zr146   2.473       .  S
O138        C157   1.293       .  A
O139        C156   1.286       .  A
O140       Zr148   2.437       .  S
O140        C155   1.283       .  A
O141       Zr146   2.411       .  S
O141       Zr148   2.384       .  S
O142       Zr147   2.386       .  S
O142       Zr148   2.374       .  S
O142        H177   0.966       .  S
O143       Zr146   2.416       .  S
O143       Zr163   2.371       .  S
O143        H180   0.961       .  S
O144       Zr147   2.389       .  S
O144       Zr163   2.402       .  S
Zr145       O170   2.437       .  S
Zr145       O164   2.466       .  S
Zr145       O172   2.464       .  S
Zr145       O160   2.421       .  S
Zr145       O151   2.408       .  S
Zr145       O152   2.424       .  S
Zr145       O153   2.382       .  S
Zr145       O154   2.375       .  S
Zr146       O165   2.435       .  S
Zr146       O158   2.434       .  S
Zr146       O159   2.497       .  S
Zr146       O152   2.406       .  S
Zr146       O153   2.393       .  S
Zr147       O149   2.438   1_556  S
Zr147       O171   2.435       .  S
Zr147       O173   2.392   1_556  S
Zr147       O151   2.387       .  S
Zr147       O154   2.387       .  S
Zr148       O174   2.436       .  S
Zr148       O175   2.436       .  S
Zr148       O150   2.439       .  S
Zr148       O151   2.410       .  S
Zr148       O152   2.392       .  S
O149        H186   0.990       .  S
O150        H181   0.990       .  S
O150        H195   0.990       .  S
O152        H178   0.965       .  S
O153       Zr163   2.370       .  S
O154       Zr163   2.358       .  S
O154        H179   0.963       .  S
C155       C3298   1.510       .  S
C156       C3338   1.467       .  S
C157       C3328   1.491       .  S
O158        H194   0.990       .  S
O159        C161   1.298       .  A
O160        C161   1.284       .  A
C161       C3311   1.512       .  S
O162       Zr163   2.433       .  S
O162        H191   0.989       .  S
Zr163       O166   2.440       .  S
Zr163       O167   2.439       .  S
Zr163       O168   2.417       .  S
O164        C169   1.288       .  A
O165        H182   0.990       .  S
O165        H197   0.990       .  S
O166        H183   0.990       .  S
O167        H187   0.990       .  S
O167        H196   0.990       .  S
O168        C169   1.281       .  A
C169       C3318   1.484       .  S
O170        H189   0.990       .  S
O170        H193   0.989       .  S
O171        H185   0.990   1_556  S
O171        H192   0.990   1_556  S
O172        C176   1.291   1_556  A
O173        C176   1.276       .  A
O174        H184   0.990       .  S
O175        H188   0.990       .  S
C176       C3398   1.471       .  S
Zr199       O200   2.444       .  S
Zr199       O201   2.454       .  S
Zr199       O202   2.442       .  S
Zr199       O205   2.444       .  S
Zr199       O207   2.387       .  S
Zr199       O208   2.378       .  S
Zr199       O209   2.416       .  S
Zr199       O210   2.406       .  S
O200        H256   0.990       .  S
O200        H264   0.989   1_455  S
O201        C221   1.286       .  A
O202        C223   1.284       .  A
O203       Zr213   2.390       .  S
O203        C222   1.276       .  A
O204       Zr212   2.481       .  S
O204        C223   1.293       .  A
O205        C222   1.285       .  A
O206       Zr214   2.415       .  S
O206        C221   1.279       .  A
O207       Zr212   2.407       .  S
O207       Zr214   2.394       .  S
O208       Zr213   2.381       .  S
O208       Zr214   2.374       .  S
O208        H243   0.971       .  S
O209       Zr212   2.409       .  S
O209       Zr229   2.376       .  S
O209        H246   0.961       .  S
O210       Zr213   2.388       .  S
O210       Zr229   2.400       .  S
Zr211       O236   2.439       .  S
Zr211       O230   2.455       .  S
Zr211       O238   2.486       .  S
Zr211       O226   2.428       .  S
Zr211       O217   2.403       .  S
Zr211       O218   2.420       .  S
Zr211       O219   2.389       .  S
Zr211       O220   2.379       .  S
Zr212       O231   2.437       .  S
Zr212       O224   2.434       .  S
Zr212       O225   2.488       .  S
Zr212       O218   2.406       .  S
Zr212       O219   2.396       .  S
Zr213       O215   2.436       .  S
Zr213       O237   2.440       .  S
Zr213       O239   2.395       .  S
Zr213       O217   2.380       .  S
Zr213       O220   2.390       .  S
Zr214       O240   2.436       .  S
Zr214       O241   2.437       .  S
Zr214       O216   2.437       .  S
Zr214       O217   2.397       .  S
Zr214       O218   2.383       .  S
O215        H252   0.989       .  S
O216        H247   0.990       .  S
O216        H261   0.990       .  S
O218        H244   0.970       .  S
O219       Zr229   2.367       .  S
O220       Zr229   2.361       .  S
O220        H245   0.971       .  S
C221       C3271   1.493       .  S
C222       C3288   1.467       .  S
C223       C3331   1.495       .  S
O224        H260   0.990       .  S
O225        C227   1.297       .  A
O226        C227   1.287       .  A
C227       C3278   1.508       .  S
O228       Zr229   2.433   1_655  S
O228        H257   0.990       .  S
Zr229       O232   2.437       .  S
Zr229       O233   2.437       .  S
Zr229       O234   2.437       .  S
O230        C235   1.288       .  A
O231        H248   0.990       .  S
O231        H263   0.990       .  S
O232        H249   0.990       .  S
O233        H253   0.990       .  S
O233        H262   0.990       .  S
O234        C235   1.285       .  A
C235       C3391   1.486       .  S
O236        H255   0.990       .  S
O236        H259   0.991       .  S
O237        H251   0.990       .  S
O237        H258   0.990       .  S
O238        C242   1.295       .  A
O239        C242   1.277       .  A
O240        H250   0.990       .  S
O241        H254   0.990       .  S
C242       C3261   1.477       .  S
Zr265       O266   2.442       .  S
Zr265       O267   2.431       .  S
Zr265       O268   2.453   1_556  S
Zr265       O271   2.448       .  S
Zr265       O273   2.391       .  S
Zr265       O274   2.383       .  S
Zr265       O275   2.412       .  S
Zr265       O276   2.401       .  S
O266        H322   0.989       .  S
O266        H330   0.990       .  S
O267        C287   1.281       .  A
O268        C289   1.287       .  A
O269       Zr279   2.395       .  S
O269        C288   1.276       .  A
O270       Zr278   2.455   1_554  S
O270        C289   1.290       .  A
O271        C288   1.285       .  A
O272       Zr280   2.421       .  S
O272        C287   1.281       .  A
O273       Zr278   2.405       .  S
O273       Zr280   2.392       .  S
O274       Zr279   2.378       .  S
O274       Zr280   2.375       .  S
O274        H309   0.962       .  S
O275       Zr278   2.416       .  S
O275       Zr295   2.373       .  S
O275        H312   0.965       .  S
O276       Zr279   2.389       .  S
O276       Zr295   2.397       .  S
Zr277       O302   2.438       .  S
Zr277       O296   2.460       .  S
Zr277       O304   2.469       .  S
Zr277       O292   2.416       .  S
Zr277       O283   2.414   1_655  S
Zr277       O284   2.415   1_655  S
Zr277       O285   2.382   1_655  S
Zr277       O286   2.378   1_655  S
Zr278       O297   2.437   1_556  S
Zr278       O290   2.435   1_556  S
Zr278       O291   2.490   1_456  S
Zr278       O284   2.395       .  S
Zr278       O285   2.393       .  S
Zr279       O281   2.435       .  S
Zr279       O303   2.436       .  S
Zr279       O305   2.390       .  S
Zr279       O283   2.386       .  S
Zr279       O286   2.394       .  S
Zr280       O306   2.435       .  S
Zr280       O307   2.437       .  S
Zr280       O282   2.437   1_556  S
Zr280       O283   2.406       .  S
Zr280       O284   2.381       .  S
O281        H318   0.990       .  S
O282        H313   0.990       .  S
O282        H327   0.990       .  S
O284        H310   0.969       .  S
O285       Zr295   2.379       .  S
O286       Zr295   2.361       .  S
O286        H311   0.965       .  S
C287       C3218   1.480       .  S
C288       C3248   1.466       .  S
C289       C3241   1.496       .  S
O290        H326   0.989       .  S
O291        C293   1.294   1_554  A
O292        C293   1.283       .  A
C293       C3228   1.511   1_556  S
O294       Zr295   2.437       .  S
O294        H323   0.990       .  S
Zr295       O298   2.441       .  S
Zr295       O299   2.439       .  S
Zr295       O300   2.424   1_455  S
O296        C301   1.288       .  A
O297        H314   0.990   1_455  S
O297        H329   0.990   1_455  S
O298        H315   0.989       .  S
O299        H319   0.990       .  S
O299        H328   0.990       .  S
O300        C301   1.282       .  A
C301       C3321   1.483       .  S
O302        H321   0.990       .  S
O302        H325   0.990       .  S
O303        H317   0.990       .  S
O303        H324   0.990       .  S
O304        C308   1.291   1_655  A
O305        C308   1.276       .  A
O306        H316   0.990       .  S
O307        H320   0.990       .  S
C308       C3351   1.469   1_455  S
Zr331       O332   2.442       .  S
Zr331       O333   2.447       .  S
Zr331       O334   2.435       .  S
Zr331       O337   2.454       .  S
Zr331       O339   2.393       .  S
Zr331       O340   2.380       .  S
Zr331       O341   2.420       .  S
Zr331       O342   2.396       .  S
O332        H388   0.990       .  S
O332        H396   0.990       .  S
O333        C353   1.286       .  A
O334        C355   1.283       .  A
O335       Zr345   2.391       .  S
O335        C354   1.276       .  A
O336       Zr344   2.462       .  S
O336        C355   1.290       .  A
O337        C354   1.287       .  A
O338       Zr346   2.426       .  S
O338        C353   1.282       .  A
O339       Zr344   2.398       .  S
O339       Zr346   2.387       .  S
O340       Zr345   2.383       .  S
O340       Zr346   2.377       .  S
O340        H375   0.966       .  S
O341       Zr344   2.403       .  S
O341       Zr361   2.370       .  S
O341        H378   0.967       .  S
O342       Zr345   2.383       .  S
O342       Zr361   2.394       .  S
Zr343       O368   2.439       .  S
Zr343       O362   2.465       .  S
Zr343       O370   2.487       .  S
Zr343       O358   2.431       .  S
Zr343       O349   2.403       .  S
Zr343       O350   2.426       .  S
Zr343       O351   2.383       .  S
Zr343       O352   2.376       .  S
Zr344       O363   2.437       .  S
Zr344       O356   2.434       .  S
Zr344       O357   2.460       .  S
Zr344       O350   2.406       .  S
Zr344       O351   2.396       .  S
Zr345       O347   2.435       .  S
Zr345       O369   2.438       .  S
Zr345       O371   2.374       .  S
Zr345       O349   2.384       .  S
Zr345       O352   2.395       .  S
Zr346       O372   2.436       .  S
Zr346       O373   2.439       .  S
Zr346       O348   2.438       .  S
Zr346       O349   2.398       .  S
Zr346       O350   2.382       .  S
O347        H384   0.990       .  S
O348        H379   0.990       .  S
O348        H393   0.990       .  S
O350        H376   0.963       .  S
O351       Zr361   2.374       .  S
O352       Zr361   2.361       .  S
O352        H377   0.959       .  S
C353       C3191   1.496       .  S
C354       C3211   1.475       .  S
C355       C3238   1.481       .  S
O356        H392   0.990       .  S
O357        C359   1.289       .  A
O358        C359   1.286       .  A
C359       C3201   1.499       .  S
O360       Zr361   2.438       .  S
O360        H389   0.990       .  S
Zr361       O364   2.436       .  S
Zr361       O365   2.438       .  S
Zr361       O366   2.404       .  S
O362        C367   1.288       .  A
O363        H380   0.990       .  S
O363        H395   0.990       .  S
O364        H381   0.990       .  S
O365        H385   0.990       .  S
O365        H394   0.990       .  S
O366        C367   1.278       .  A
C367       C3441   1.477       .  S
O368        H387   0.990       .  S
O368        H391   0.990       .  S
O369        H383   0.989       .  S
O369        H390   0.990       .  S
O370        C374   1.296       .  A
O371        C374   1.272       .  A
O372        H382   0.990       .  S
O373        H386   0.990       .  S
C374       C3258   1.473       .  S
Zr397       O398   2.442       .  S
Zr397       O399   2.447       .  S
Zr397       O400   2.449       .  S
Zr397       O403   2.436       .  S
Zr397       O405   2.374       .  S
Zr397       O406   2.395       .  S
Zr397       O407   2.412       .  S
Zr397       O408   2.399       .  S
O398        H454   0.991       .  S
O398        H462   0.990       .  S
O399        C419   1.284       .  A
O400        C421   1.284       .  A
O401       Zr411   2.451       .  S
O401        C420   1.288       .  A
O402       Zr410   2.391       .  S
O402        C421   1.276       .  A
O403        C420   1.286       .  A
O404       Zr412   2.442       .  S
O404        C419   1.285       .  A
O405       Zr410   2.391       .  S
O405       Zr412   2.375       .  S
O406       Zr411   2.397       .  S
O406       Zr412   2.381       .  S
O406        H441   0.967       .  S
O407       Zr410   2.395       .  S
O407       Zr427   2.407       .  S
O407        H444   0.974       .  S
O408       Zr411   2.387       .  S
O408       Zr427   2.375       .  S
Zr409       O434   2.437       .  S
Zr409       O428   2.461       .  S
Zr409       O436   2.442       .  S
Zr409       O424   2.494       .  S
Zr409       O415   2.426       .  S
Zr409       O416   2.405       .  S
Zr409       O417   2.375       .  S
Zr409       O418   2.395       .  S
Zr410       O429   2.438       .  S
Zr410       O422   2.434       .  S
Zr410       O423   2.395       .  S
Zr410       O416   2.386       .  S
Zr410       O417   2.389       .  S
Zr411       O413   2.435       .  S
Zr411       O435   2.439       .  S
Zr411       O437   2.449       .  S
Zr411       O415   2.402       .  S
Zr411       O418   2.393       .  S
Zr412       O438   2.435       .  S
Zr412       O439   2.435       .  S
Zr412       O414   2.438       .  S
Zr412       O415   2.403       .  S
Zr412       O416   2.412       .  S
O413        H450   0.990       .  S
O414        H445   0.990       .  S
O414        H459   0.990       .  S
O416        H442   0.958       .  S
O417       Zr427   2.375       .  S
O418       Zr427   2.382       .  S
O418        H443   0.967       .  S
C419       C3151   1.491       .  S
C420       C3168   1.488       .  S
C421       C3178   1.466       .  S
O422        H458   0.990       .  S
O423        C425   1.276       .  A
O424        C425   1.296       .  A
C425       C3138   1.487       .  S
O426       Zr427   2.438       .  S
O426        H455   0.990       .  S
Zr427       O430   2.434       .  S
Zr427       O431   2.435       .  S
Zr427       O432   2.418       .  S
O428        C433   1.288       .  A
O429        H446   0.990       .  S
O429        H461   0.990       .  S
O430        H447   0.991       .  S
O431        H451   0.990       .  S
O431        H460   0.990       .  S
O432        C433   1.281       .  A
C433       C3158   1.479       .  S
O434        H453   0.989       .  S
O434        H457   0.990       .  S
O435        H449   0.989       .  S
O435        H456   0.990       .  S
O436        C440   1.287       .  A
O437        C440   1.287       .  A
O438        H448   0.990       .  S
O439        H452   0.990       .  S
C440       C3268   1.485       .  S
Zr463       O464   2.440       .  S
Zr463       O465   2.450       .  S
Zr463       O466   2.463       .  S
Zr463       O469   2.450       .  S
Zr463       O471   2.378       .  S
Zr463       O472   2.400       .  S
Zr463       O473   2.412       .  S
Zr463       O474   2.401       .  S
O464        H520   0.990       .  S
O464        H528   0.991       .  S
O465        C485   1.287       .  A
O466        C487   1.287       .  A
O467       Zr477   2.461       .  S
O467        C486   1.291       .  A
O468       Zr476   2.409       .  S
O468        C487   1.279       .  A
O469        C486   1.288       .  A
O470       Zr478   2.441       .  S
O470        C485   1.284       .  A
O471       Zr476   2.384       .  S
O471       Zr478   2.382       .  S
O472       Zr477   2.400       .  S
O472       Zr478   2.387       .  S
O472        H507   0.966       .  S
O473       Zr476   2.391       .  S
O473       Zr493   2.399       .  S
O473        H510   0.960       .  S
O474       Zr477   2.392       .  S
O474       Zr493   2.384       .  S
Zr475       O500   2.438       .  S
Zr475       O494   2.472       .  S
Zr475       O502   2.438       .  S
Zr475       O490   2.464       .  S
Zr475       O481   2.413   1_655  S
Zr475       O482   2.416   1_655  S
Zr475       O483   2.374   1_655  S
Zr475       O484   2.384   1_655  S
Zr476       O495   2.437       .  S
Zr476       O488   2.435       .  S
Zr476       O489   2.390       .  S
Zr476       O482   2.393       .  S
Zr476       O483   2.397       .  S
Zr477       O479   2.434   1_455  S
Zr477       O501   2.437       .  S
Zr477       O503   2.469   1_455  S
Zr477       O481   2.392       .  S
Zr477       O484   2.388       .  S
Zr478       O504   2.435       .  S
Zr478       O505   2.436       .  S
Zr478       O480   2.435       .  S
Zr478       O481   2.391       .  S
Zr478       O482   2.408       .  S
O479        H516   0.990       .  S
O480        H511   0.990       .  S
O480        H525   0.990       .  S
O482        H508   0.959       .  S
O483       Zr493   2.370       .  S
O484       Zr493   2.379       .  S
O484        H509   0.961   1_455  S
C485       C3098   1.503       .  S
C486       C3171   1.496       .  S
C487       C3118   1.478       .  S
O488        H524   0.990       .  S
O489        C491   1.275       .  A
O490        C491   1.290   1_655  A
C491       C3091   1.469   1_455  S
O492       Zr493   2.437       .  S
O492        H521   0.990       .  S
Zr493       O496   2.436       .  S
Zr493       O497   2.431       .  S
Zr493       O498   2.419   1_455  S
O494        C499   1.290       .  A
O495        H512   0.991       .  S
O495        H527   0.990       .  S
O496        H513   0.989       .  S
O497        H517   0.990       .  S
O497        H526   0.990       .  S
O498        C499   1.281       .  A
C499       C3128   1.483       .  S
O500        H519   0.993       .  S
O500        H523   0.986       .  S
O501        H515   0.990       .  S
O501        H522   0.990       .  S
O502        C506   1.286       .  A
O503        C506   1.292       .  A
O504        H514   0.990       .  S
O505        H518   0.990   1_455  S
C506       C3108   1.499       .  S
Zr529       O530   2.443       .  S
Zr529       O531   2.439       .  S
Zr529       O532   2.446       .  S
Zr529       O535   2.433       .  S
Zr529       O537   2.380       .  S
Zr529       O538   2.394       .  S
Zr529       O539   2.408       .  S
Zr529       O540   2.399       .  S
O530        H586   0.990       .  S
O530        H594   0.991       .  S
O531        C551   1.284       .  A
O532        C553   1.284       .  A
O533       Zr543   2.463       .  S
O533        C552   1.291       .  A
O534       Zr542   2.401       .  S
O534        C553   1.277       .  A
O535        C552   1.284       .  A
O536       Zr544   2.432       .  S
O536        C551   1.283       .  A
O537       Zr542   2.387       .  S
O537       Zr544   2.376       .  S
O538       Zr543   2.397       .  S
O538       Zr544   2.386       .  S
O538        H573   0.965       .  S
O539       Zr542   2.394       .  S
O539       Zr559   2.397       .  S
O539        H576   0.964       .  S
O540       Zr543   2.394       .  S
O540       Zr559   2.389       .  S
Zr541       O566   2.439       .  S
Zr541       O560   2.457       .  S
Zr541       O568   2.429       .  S
Zr541       O556   2.467       .  S
Zr541       O547   2.413       .  S
Zr541       O548   2.413       .  S
Zr541       O549   2.382       .  S
Zr541       O550   2.386       .  S
Zr542       O561   2.441       .  S
Zr542       O554   2.435       .  S
Zr542       O555   2.391       .  S
Zr542       O548   2.398       .  S
Zr542       O549   2.403       .  S
Zr543       O545   2.435       .  S
Zr543       O567   2.435       .  S
Zr543       O569   2.476       .  S
Zr543       O547   2.399       .  S
Zr543       O550   2.382       .  S
Zr544       O570   2.435       .  S
Zr544       O571   2.435       .  S
Zr544       O546   2.437       .  S
Zr544       O547   2.395       .  S
Zr544       O548   2.403       .  S
O545        H582   0.990       .  S
O546        H577   0.990       .  S
O546        H591   0.989       .  S
O548        H574   0.958       .  S
O549       Zr559   2.372       .  S
O550       Zr559   2.380       .  S
O550        H575   0.961       .  S
C551       C3058   1.484       .  S
C552       C3078   1.496       .  S
C553       C3068   1.468       .  S
O554        H590   0.991       .  S
O555        C557   1.274       .  A
O556        C557   1.290       .  A
C557       C3048   1.470       .  S
O558       Zr559   2.436       .  S
O558        H587   0.990       .  S
Zr559       O562   2.435       .  S
Zr559       O563   2.434       .  S
Zr559       O564   2.422       .  S
O560        C565   1.286       .  A
O561        H578   0.989       .  S
O561        H593   0.989       .  S
O562        H579   0.990       .  S
O563        H583   0.990       .  S
O563        H592   0.990       .  S
O564        C565   1.281       .  A
C565       C3161   1.475       .  S
O566        H585   0.990       .  S
O566        H589   0.990       .  S
O567        H581   0.989       .  S
O567        H588   0.990       .  S
O568        C572   1.285       .  A
O569        C572   1.293       .  A
O570        H580   0.990       .  S
O571        H584   0.990       .  S
C572       C3301   1.501       .  S
Zr595       O596   2.441       .  S
Zr595       O597   2.436       .  S
Zr595       O598   2.462       .  S
Zr595       O601   2.438   1_554  S
Zr595       O603   2.378       .  S
Zr595       O604   2.397       .  S
Zr595       O605   2.404       .  S
Zr595       O606   2.400       .  S
O596        H652   0.990       .  S
O596        H660   0.991       .  S
O597        C617   1.283       .  A
O598        C619   1.287       .  A
O599       Zr609   2.454   1_556  S
O599        C618   1.289       .  A
O600       Zr608   2.389       .  S
O600        C619   1.276       .  A
O601        C618   1.285       .  A
O602       Zr610   2.441       .  S
O602        C617   1.285       .  A
O603       Zr608   2.383       .  S
O603       Zr610   2.378       .  S
O604       Zr609   2.399       .  S
O604       Zr610   2.379       .  S
O604        H639   0.967   1_554  S
O605       Zr608   2.390       .  S
O605       Zr625   2.393       .  S
O605        H642   0.966       .  S
O606       Zr609   2.394       .  S
O606       Zr625   2.383       .  S
Zr607       O632   2.440   1_655  S
Zr607       O626   2.470   1_655  S
Zr607       O634   2.427   1_655  S
Zr607       O622   2.475       .  S
Zr607       O613   2.416       .  S
Zr607       O614   2.414       .  S
Zr607       O615   2.375       .  S
Zr607       O616   2.386       .  S
Zr608       O627   2.439       .  S
Zr608       O620   2.437       .  S
Zr608       O621   2.381       .  S
Zr608       O614   2.389       .  S
Zr608       O615   2.398       .  S
Zr609       O611   2.432   1_554  S
Zr609       O633   2.438   1_554  S
Zr609       O635   2.461   1_554  S
Zr609       O613   2.392       .  S
Zr609       O616   2.390       .  S
Zr610       O636   2.437       .  S
Zr610       O637   2.437       .  S
Zr610       O612   2.438       .  S
Zr610       O613   2.395       .  S
Zr610       O614   2.413       .  S
O611        H648   0.990       .  S
O612        H643   0.991       .  S
O612        H657   0.990       .  S
O614        H640   0.963       .  S
O615       Zr625   2.376       .  S
O616       Zr625   2.381       .  S
O616        H641   0.963       .  S
C617       C3011   1.491       .  S
C618       C3081   1.492       .  S
C619       C3031   1.468       .  S
O620        H656   0.990       .  S
O621        C623   1.272       .  A
O622        C623   1.290       .  A
C623       C3088   1.469       .  S
O624       Zr625   2.439       .  S
O624        H653   0.990       .  S
Zr625       O628   2.436       .  S
Zr625       O629   2.434       .  S
Zr625       O630   2.416       .  S
O626        C631   1.289       .  A
O627        H644   0.990       .  S
O627        H659   0.990       .  S
O628        H645   0.990       .  S
O629        H649   0.990       .  S
O629        H658   0.990       .  S
O630        C631   1.280   1_655  A
C631       C3038   1.482       .  S
O632        H651   0.991       .  S
O632        H655   0.990       .  S
O633        H647   0.990       .  S
O633        H654   0.990       .  S
O634        C638   1.285       .  A
O635        C638   1.289   1_656  A
O636        H646   0.991       .  S
O637        H650   0.990       .  S
C638       C3021   1.491       .  S
Zr661       O662   2.440       .  S
Zr661       O663   2.428       .  S
Zr661       O664   2.451       .  S
Zr661       O667   2.444       .  S
Zr661       O669   2.379       .  S
Zr661       O670   2.394       .  S
Zr661       O671   2.401       .  S
Zr661       O672   2.394       .  S
O662        H718   0.990       .  S
O662        H726   0.990   1_455  S
O663        C683   1.282       .  A
O664        C685   1.285       .  A
O665       Zr675   2.470       .  S
O665        C684   1.292       .  A
O666       Zr674   2.391       .  S
O666        C685   1.276       .  A
O667        C684   1.286       .  A
O668       Zr676   2.449       .  S
O668        C683   1.286       .  A
O669       Zr674   2.390       .  S
O669       Zr676   2.376       .  S
O670       Zr675   2.401       .  S
O670       Zr676   2.384       .  S
O670        H705   0.965       .  S
O671       Zr674   2.393       .  S
O671       Zr691   2.391       .  S
O671        H708   0.989       .  S
O672       Zr675   2.390       .  S
O672       Zr691   2.380       .  S
Zr673       O698   2.438       .  S
Zr673       O692   2.467       .  S
Zr673       O700   2.427       .  S
Zr673       O688   2.483       .  S
Zr673       O679   2.422       .  S
Zr673       O680   2.413       .  S
Zr673       O681   2.370       .  S
Zr673       O682   2.387       .  S
Zr674       O693   2.439   1_554  S
Zr674       O686   2.436       .  S
Zr674       O687   2.396   1_554  S
Zr674       O680   2.390       .  S
Zr674       O681   2.391       .  S
Zr675       O677   2.433       .  S
Zr675       O699   2.438       .  S
Zr675       O701   2.467       .  S
Zr675       O679   2.398       .  S
Zr675       O682   2.393       .  S
Zr676       O702   2.437       .  S
Zr676       O703   2.437       .  S
Zr676       O678   2.438       .  S
Zr676       O679   2.403       .  S
Zr676       O680   2.417       .  S
O677        H714   0.990       .  S
O678        H709   0.990       .  S
O678        H723   0.989       .  S
O680        H706   0.968       .  S
O681       Zr691   2.371       .  S
O682       Zr691   2.380       .  S
O682        H707   0.971       .  S
C683       C3198   1.491       .  S
C684       C3001   1.503       .  S
C685       C3341   1.469       .  S
O686        H722   0.990   1_554  S
O687        C689   1.275       .  A
O688        C689   1.293   1_554  A
C689       C3141   1.481       .  S
O690       Zr691   2.436   1_655  S
O690        H719   0.990       .  S
Zr691       O694   2.437       .  S
Zr691       O695   2.434       .  S
Zr691       O696   2.418       .  S
O692        C697   1.289       .  A
O693        H710   0.989       .  S
O693        H725   0.990       .  S
O694        H711   0.990   1_455  S
O695        H715   0.992       .  S
O695        H724   0.988       .  S
O696        C697   1.281       .  A
C697       C3041   1.483       .  S
O698        H717   0.990       .  S
O698        H721   0.990       .  S
O699        H713   0.990       .  S
O699        H720   0.990       .  S
O700        C704   1.285       .  A
O701        C704   1.291       .  A
O702        H712   0.990       .  S
O703        H716   0.990       .  S
C704       C2988   1.495       .  S
Zr727       O728   2.441       .  S
Zr727       O729   2.453       .  S
Zr727       O730   2.471       .  S
Zr727       O733   2.463       .  S
Zr727       O735   2.376       .  S
Zr727       O736   2.404       .  S
Zr727       O737   2.413       .  S
Zr727       O738   2.397       .  S
O728        H784   0.990       .  S
O728        H792   0.990       .  S
O729        C749   1.286       .  A
O730        C751   1.290       .  A
O731       Zr741   2.453       .  S
O731        C750   1.288       .  A
O732       Zr740   2.384       .  S
O732        C751   1.274       .  A
O733        C750   1.291       .  A
O734       Zr742   2.432       .  S
O734        C749   1.283       .  A
O735       Zr740   2.386       .  S
O735       Zr742   2.367       .  S
O736       Zr741   2.404       .  S
O736       Zr742   2.388       .  S
O736        H771   0.966       .  S
O737       Zr740   2.391       .  S
O737       Zr757   2.393       .  S
O737        H774   0.960       .  S
O738       Zr741   2.391       .  S
O738       Zr757   2.377       .  S
Zr739       O764   2.440       .  S
Zr739       O758   2.485       .  S
Zr739       O766   2.435       .  S
Zr739       O754   2.466       .  S
Zr739       O745   2.422       .  S
Zr739       O746   2.412       .  S
Zr739       O747   2.381       .  S
Zr739       O748   2.380       .  S
Zr740       O759   2.439       .  S
Zr740       O752   2.437       .  S
Zr740       O753   2.385       .  S
Zr740       O746   2.386       .  S
Zr740       O747   2.392       .  S
Zr741       O743   2.434       .  S
Zr741       O765   2.436       .  S
Zr741       O767   2.479       .  S
Zr741       O745   2.392       .  S
Zr741       O748   2.379       .  S
Zr742       O768   2.432       .  S
Zr742       O769   2.435       .  S
Zr742       O744   2.438       .  S
Zr742       O745   2.408       .  S
Zr742       O746   2.398       .  S
O743        H780   0.990       .  S
O744        H775   0.990       .  S
O744        H789   0.990       .  S
O746        H772   0.965       .  S
O747       Zr757   2.369       .  S
O748       Zr757   2.386       .  S
O748        H773   0.962       .  S
C749       C3421   1.491       .  S
C750       C2998   1.495       .  S
C751       C3291   1.473       .  S
O752        H788   0.990       .  S
O753        C755   1.275       .  A
O754        C755   1.291       .  A
C755       C3051   1.468       .  S
O756       Zr757   2.435       .  S
O756        H785   0.990       .  S
Zr757       O760   2.435       .  S
Zr757       O761   2.432       .  S
Zr757       O762   2.404       .  S
O758        C763   1.293       .  A
O759        H776   0.990       .  S
O759        H791   0.990       .  S
O760        H777   0.990       .  S
O761        H781   0.989       .  S
O761        H790   0.990       .  S
O762        C763   1.278       .  A
C763       C3131   1.483       .  S
O764        H783   0.990       .  S
O764        H787   0.990       .  S
O765        H779   0.988       .  S
O765        H786   0.991       .  S
O766        C770   1.285       .  A
O767        C770   1.293       .  A
O768        H778   0.989       .  S
O769        H782   0.990       .  S
C770       C2981   1.510       .  S
Zr793       O794   2.441       .  S
Zr793       O795   2.472       .  S
Zr793       O796   2.453       .  S
Zr793       O799   2.452       .  S
Zr793       O801   2.396       .  S
Zr793       O802   2.380       .  S
Zr793       O803   2.429       .  S
Zr793       O804   2.409       .  S
O794        H850   0.989       .  S
O794        H858   0.991       .  S
O795        C815   1.290       .  A
O796        C817   1.286       .  A
O797       Zr807   2.380       .  S
O797        C816   1.273       .  A
O798       Zr806   2.478       .  S
O798        C817   1.295       .  A
O799        C816   1.287       .  A
O800       Zr808   2.437       .  S
O800        C815   1.284       .  A
O801       Zr806   2.409       .  S
O801       Zr808   2.388       .  S
O802       Zr807   2.383       .  S
O802       Zr808   2.372       .  S
O802        H837   0.969       .  S
O803       Zr806   2.418       .  S
O803       Zr823   2.371       .  S
O803        H840   0.968       .  S
O804       Zr807   2.391       .  S
O804       Zr823   2.405       .  S
Zr805       O830   2.437       .  S
Zr805       O824   2.474       .  S
Zr805       O832   2.467       .  S
Zr805       O820   2.420       .  S
Zr805       O811   2.412       .  S
Zr805       O812   2.427       .  S
Zr805       O813   2.381       .  S
Zr805       O814   2.376       .  S
Zr806       O825   2.435       .  S
Zr806       O818   2.433       .  S
Zr806       O819   2.502       .  S
Zr806       O812   2.399       .  S
Zr806       O813   2.400       .  S
Zr807       O809   2.437       .  S
Zr807       O831   2.437       .  S
Zr807       O833   2.393       .  S
Zr807       O811   2.382       .  S
Zr807       O814   2.391       .  S
Zr808       O834   2.435       .  S
Zr808       O835   2.437       .  S
Zr808       O810   2.438       .  S
Zr808       O811   2.411       .  S
Zr808       O812   2.389       .  S
O809        H846   0.990       .  S
O810        H841   0.990       .  S
O810        H855   0.990       .  S
O812        H838   0.964       .  S
O813       Zr823   2.374       .  S
O814       Zr823   2.359       .  S
O814        H839   0.962       .  S
C815       C2978   1.510       .  S
C816       C3028   1.468       .  S
C817       C2958   1.501       .  S
O818        H854   0.990       .  S
O819        C821   1.298       .  A
O820        C821   1.283       .  A
C821       C2951   1.515       .  S
O822       Zr823   2.437       .  S
O822        H851   0.990       .  S
Zr823       O826   2.436       .  S
Zr823       O827   2.439       .  S
Zr823       O828   2.430       .  S
O824        C829   1.290       .  A
O825        H842   0.990       .  S
O825        H857   0.988       .  S
O826        H843   0.990       .  S
O827        H847   0.990       .  S
O827        H856   0.990       .  S
O828        C829   1.282       .  A
C829       C2971   1.492       .  S
O830        H849   0.990       .  S
O830        H853   0.989       .  S
O831        H845   0.990       .  S
O831        H852   0.990       .  S
O832        C836   1.291       .  A
O833        C836   1.275       .  A
O834        H844   0.990       .  S
O835        H848   0.990       .  S
C836       C2941   1.470       .  S
Zr859       O860   2.443       .  S
Zr859       O861   2.468       .  S
Zr859       O862   2.456       .  S
Zr859       O865   2.447       .  S
Zr859       O867   2.390       .  S
Zr859       O868   2.383       .  S
Zr859       O869   2.415       .  S
Zr859       O870   2.409       .  S
O860        H916   0.990       .  S
O860        H924   0.990       .  S
O861        C881   1.290       .  A
O862        C883   1.288       .  A
O863       Zr873   2.382       .  S
O863        C882   1.275       .  A
O864       Zr872   2.439       .  S
O864        C883   1.285       .  A
O865        C882   1.287       .  A
O866       Zr874   2.432       .  S
O866        C881   1.284       .  A
O867       Zr872   2.399       .  S
O867       Zr874   2.389       .  S
O868       Zr873   2.381       .  S
O868       Zr874   2.362       .  S
O868        H903   0.969       .  S
O869       Zr872   2.414       .  S
O869       Zr889   2.374       .  S
O869        H906   0.971       .  S
O870       Zr873   2.389       .  S
O870       Zr889   2.393       .  S
Zr871       O896   2.438       .  S
Zr871       O890   2.463       .  S
Zr871       O898   2.468       .  S
Zr871       O886   2.427       .  S
Zr871       O877   2.411       .  S
Zr871       O878   2.422       .  S
Zr871       O879   2.382       .  S
Zr871       O880   2.374       .  S
Zr872       O891   2.433       .  S
Zr872       O884   2.436       .  S
Zr872       O885   2.449       .  S
Zr872       O878   2.396       .  S
Zr872       O879   2.399       .  S
Zr873       O875   2.440       .  S
Zr873       O897   2.436       .  S
Zr873       O899   2.381       .  S
Zr873       O877   2.377       .  S
Zr873       O880   2.386       .  S
Zr874       O900   2.435       .  S
Zr874       O901   2.436       .  S
Zr874       O876   2.433       .  S
Zr874       O877   2.399       .  S
Zr874       O878   2.389       .  S
O875        H912   0.989       .  S
O876        H907   0.990       .  S
O876        H921   0.990       .  S
O878        H904   0.965       .  S
O879       Zr889   2.379       .  S
O880       Zr889   2.359       .  S
O880        H905   0.975       .  S
C881       C3111   1.498       .  S
C882       C3071   1.461       .  S
C883       C2961   1.487       .  S
O884        H920   0.990       .  S
O885        C887   1.288       .  A
O886        C887   1.285       .  A
C887       C2918   1.480       .  S
O888       Zr889   2.435       .  S
O888        H917   0.990       .  S
Zr889       O892   2.436       .  S
Zr889       O893   2.440       .  S
Zr889       O894   2.407       .  S
O890        C895   1.288       .  A
O891        H908   0.990       .  S
O891        H923   0.989       .  S
O892        H909   0.990       .  S
O893        H913   0.990       .  S
O893        H922   0.990       .  S
O894        C895   1.279       .  A
C895       C2928   1.480       .  S
O896        H915   0.990       .  S
O896        H919   0.990       .  S
O897        H911   0.990       .  S
O897        H918   0.990       .  S
O898        C902   1.290       .  A
O899        C902   1.274       .  A
O900        H910   0.990       .  S
O901        H914   0.990       .  S
C902       C2908   1.464       .  S
Zr925       O926   2.444       .  S
Zr925       O927   2.459       .  S
Zr925       O928   2.444   1_556  S
Zr925       O931   2.448       .  S
Zr925       O933   2.386       .  S
Zr925       O934   2.376       .  S
Zr925       O935   2.425       .  S
Zr925       O936   2.412       .  S
O926        H982   0.989       .  S
O926        H990   0.989       .  S
O927        C947   1.286       .  A
O928        C949   1.286       .  A
O929       Zr939   2.389       .  S
O929        C948   1.275       .  A
O930       Zr938   2.441   1_554  S
O930        C949   1.287       .  A
O931        C948   1.285       .  A
O932       Zr940   2.442       .  S
O932        C947   1.284       .  A
O933       Zr938   2.405       .  S
O933       Zr940   2.380       .  S
O934       Zr939   2.392       .  S
O934       Zr940   2.372       .  S
O934        H969   0.964       .  S
O935       Zr938   2.415       .  S
O935       Zr955   2.373       .  S
O935        H972   0.962       .  S
O936       Zr939   2.385       .  S
O936       Zr955   2.404       .  S
Zr937       O962   2.440       .  S
Zr937       O956   2.457       .  S
Zr937       O964   2.454       .  S
Zr937       O952   2.430       .  S
Zr937       O943   2.413       .  S
Zr937       O944   2.420       .  S
Zr937       O945   2.375       .  S
Zr937       O946   2.381       .  S
Zr938       O957   2.436   1_556  S
Zr938       O950   2.432   1_556  S
Zr938       O951   2.465   1_556  S
Zr938       O944   2.402       .  S
Zr938       O945   2.392       .  S
Zr939       O941   2.436       .  S
Zr939       O963   2.438       .  S
Zr939       O965   2.385       .  S
Zr939       O943   2.387       .  S
Zr939       O946   2.392       .  S
Zr940       O966   2.435       .  S
Zr940       O967   2.435       .  S
Zr940       O942   2.436       .  S
Zr940       O943   2.409       .  S
Zr940       O944   2.389       .  S
O941        H978   0.990       .  S
O942        H973   0.990       .  S
O942        H987   0.990   1_556  S
O944        H970   0.957       .  S
O945       Zr955   2.375       .  S
O946       Zr955   2.365       .  S
O946        H971   0.965       .  S
C947       C2868   1.518       .  S
C948       C2898   1.461       .  S
C949       C2888   1.480       .  S
O950        H986   0.990       .  S
O951        C953   1.290   1_554  A
O952        C953   1.284       .  A
C953       C3008   1.488   1_556  S
O954       Zr955   2.438       .  S
O954        H983   0.990       .  S
Zr955       O958   2.437       .  S
Zr955       O959   2.444       .  S
Zr955       O960   2.420       .  S
O956        C961   1.286       .  A
O957        H974   0.990       .  S
O957        H989   0.990       .  S
O958        H975   0.990       .  S
O959        H979   0.990       .  S
O959        H988   0.990       .  S
O960        C961   1.281       .  A
C961       C2878   1.482       .  S
O962        H981   0.989       .  S
O962        H985   0.990       .  S
O963        H977   0.990       .  S
O963        H984   0.990       .  S
O964        C968   1.287       .  A
O965        C968   1.275       .  A
O966        H976   0.990       .  S
O967        H980   0.990       .  S
C968       C2911   1.462       .  S
Zr991       O992   2.444       .  S
Zr991       O993   2.476       .  S
Zr991       O994   2.425       .  S
Zr991       O997   2.455       .  S
Zr991       O999   2.392       .  S
Zr991      O1000   2.369       .  S
Zr991      O1001   2.430       .  S
Zr991      O1002   2.403       .  S
O992       H1048   0.989       .  S
O992       H1056   0.990       .  S
O993       C1013   1.290       .  A
O994       C1015   1.281       .  A
O995      Zr1005   2.406       .  S
O995       C1014   1.279       .  A
O996      Zr1004   2.456       .  S
O996       C1015   1.290       .  A
O997       C1014   1.287       .  A
O998      Zr1006   2.436       .  S
O998       C1013   1.283       .  A
O999      Zr1004   2.410       .  S
O999      Zr1006   2.379       .  S
O1000     Zr1005   2.380       .  S
O1000     Zr1006   2.376       .  S
O1000      H1035   0.968       .  S
O1001     Zr1004   2.413       .  S
O1001     Zr1021   2.377       .  S
O1001      H1038   0.959       .  S
O1002     Zr1005   2.384       .  S
O1002     Zr1021   2.405       .  S
Zr1003     O1028   2.441       .  S
Zr1003     O1022   2.475       .  S
Zr1003     O1030   2.474       .  S
Zr1003     O1018   2.430       .  S
Zr1003     O1009   2.411       .  S
Zr1003     O1010   2.427       .  S
Zr1003     O1011   2.383       .  S
Zr1003     O1012   2.377       .  S
Zr1004     O1023   2.437       .  S
Zr1004     O1016   2.435       .  S
Zr1004     O1017   2.482       .  S
Zr1004     O1010   2.400       .  S
Zr1004     O1011   2.393       .  S
Zr1005     O1007   2.436       .  S
Zr1005     O1029   2.434       .  S
Zr1005     O1031   2.389       .  S
Zr1005     O1009   2.387       .  S
Zr1005     O1012   2.394       .  S
Zr1006     O1032   2.434       .  S
Zr1006     O1033   2.435       .  S
Zr1006     O1008   2.439       .  S
Zr1006     O1009   2.410       .  S
Zr1006     O1010   2.397       .  S
O1007      H1044   0.990       .  S
O1008      H1039   0.990       .  S
O1008      H1053   0.990       .  S
O1010      H1036   0.972       .  S
O1011     Zr1021   2.371       .  S
O1012     Zr1021   2.360       .  S
O1012      H1037   0.966       .  S
C1013      C2851   1.515       .  S
C1014      C2858   1.478       .  S
C1015      C2891   1.477       .  S
O1016      H1052   0.990       .  S
O1017      C1019   1.293       .  A
O1018      C1019   1.284       .  A
C1019      C2838   1.515       .  S
O1020     Zr1021   2.433       .  S
O1020      H1049   0.990       .  S
Zr1021     O1024   2.438       .  S
Zr1021     O1025   2.439       .  S
Zr1021     O1026   2.430       .  S
O1022      C1027   1.291       .  A
O1023      H1040   0.990       .  S
O1023      H1055   0.990       .  S
O1024      H1041   0.990       .  S
O1025      H1045   0.990       .  S
O1025      H1054   0.990       .  S
O1026      C1027   1.283       .  A
C1027      C2968   1.491       .  S
O1028      H1047   0.990       .  S
O1028      H1051   0.988       .  S
O1029      H1043   0.990       .  S
O1029      H1050   0.990       .  S
O1030      C1034   1.293       .  A
O1031      C1034   1.275       .  A
O1032      H1042   0.990       .  S
O1033      H1046   0.990       .  S
C1034      C2828   1.472       .  S
Zr1057     O1058   2.443       .  S
Zr1057     O1059   2.457       .  S
Zr1057     O1060   2.444       .  S
Zr1057     O1063   2.457       .  S
Zr1057     O1065   2.394       .  S
Zr1057     O1066   2.383       .  S
Zr1057     O1067   2.423       .  S
Zr1057     O1068   2.402       .  S
O1058      H1114   0.990       .  S
O1058      H1122   0.991       .  S
O1059      C1079   1.287       .  A
O1060      C1081   1.285       .  A
O1061     Zr1071   2.375       .  S
O1061      C1080   1.273       .  A
O1062     Zr1070   2.474       .  S
O1062      C1081   1.293       .  A
O1063      C1080   1.287       .  A
O1064     Zr1072   2.408       .  S
O1064      C1079   1.279       .  A
O1065     Zr1070   2.406       .  S
O1065     Zr1072   2.387       .  S
O1066     Zr1071   2.388       .  S
O1066     Zr1072   2.378       .  S
O1066      H1101   0.969       .  S
O1067     Zr1070   2.417       .  S
O1067     Zr1087   2.374       .  S
O1067      H1104   0.968       .  S
O1068     Zr1071   2.384       .  S
O1068     Zr1087   2.392       .  S
Zr1069     O1094   2.439       .  S
Zr1069     O1088   2.455       .  S
Zr1069     O1096   2.477       .  S
Zr1069     O1084   2.432       .  S
Zr1069     O1075   2.406       .  S
Zr1069     O1076   2.419       .  S
Zr1069     O1077   2.388       .  S
Zr1069     O1078   2.376       .  S
Zr1070     O1089   2.436       .  S
Zr1070     O1082   2.434       .  S
Zr1070     O1083   2.484       .  S
Zr1070     O1076   2.408       .  S
Zr1070     O1077   2.395       .  S
Zr1071     O1073   2.436       .  S
Zr1071     O1095   2.436       .  S
Zr1071     O1097   2.383       .  S
Zr1071     O1075   2.384       .  S
Zr1071     O1078   2.383       .  S
Zr1072     O1098   2.437       .  S
Zr1072     O1099   2.435       .  S
Zr1072     O1074   2.439       .  S
Zr1072     O1075   2.401       .  S
Zr1072     O1076   2.386       .  S
O1073      H1110   0.990       .  S
O1074      H1105   0.989       .  S
O1074      H1119   0.989       .  S
O1076      H1102   0.968       .  S
O1077     Zr1087   2.376       .  S
O1078     Zr1087   2.363       .  S
O1078      H1103   0.965       .  S
C1079      C2791   1.481       .  S
C1080      C2808   1.466       .  S
C1081      C2818   1.493       .  S
O1082      H1118   0.990       .  S
O1083      C1085   1.295       .  A
O1084      C1085   1.285       .  A
C1085      C2798   1.509       .  S
O1086     Zr1087   2.435       .  S
O1086      H1115   0.990       .  S
Zr1087     O1090   2.435       .  S
Zr1087     O1091   2.440       .  S
Zr1087     O1092   2.409       .  S
O1088      C1093   1.287       .  A
O1089      H1106   0.990       .  S
O1089      H1121   0.989       .  S
O1090      H1107   0.990       .  S
O1091      H1111   0.990       .  S
O1091      H1120   0.990       .  S
O1092      C1093   1.279       .  A
C1093      C2931   1.474       .  S
O1094      H1113   0.990       .  S
O1094      H1117   0.990       .  S
O1095      H1109   0.990       .  S
O1095      H1116   0.990       .  S
O1096      C1100   1.293       .  A
O1097      C1100   1.274       .  A
O1098      H1108   0.989       .  S
O1099      H1112   0.990       .  S
C1100      C2831   1.471       .  S
Zr1123     O1124   2.440       .  S
Zr1123     O1125   2.463       .  S
Zr1123     O1126   2.456       .  S
Zr1123     O1129   2.447       .  S
Zr1123     O1131   2.394       .  S
Zr1123     O1132   2.382       .  S
Zr1123     O1133   2.425       .  S
Zr1123     O1134   2.403       .  S
O1124      H1180   0.988       .  S
O1124      H1188   0.991       .  S
O1125      C1145   1.289       .  A
O1126      C1147   1.287       .  A
O1127     Zr1137   2.372       .  S
O1127      C1146   1.273       .  A
O1128     Zr1136   2.483       .  S
O1128      C1147   1.295       .  A
O1129      C1146   1.286       .  A
O1130     Zr1138   2.425       .  S
O1130      C1145   1.281       .  A
O1131     Zr1136   2.403       .  S
O1131     Zr1138   2.386       .  S
O1132     Zr1137   2.382       .  S
O1132     Zr1138   2.369       .  S
O1132      H1167   0.966       .  S
O1133     Zr1136   2.412       .  S
O1133     Zr1153   2.366       .  S
O1133      H1170   0.961       .  S
O1134     Zr1137   2.391       .  S
O1134     Zr1153   2.390       .  S
Zr1135     O1160   2.439       .  S
Zr1135     O1154   2.480       .  S
Zr1135     O1162   2.479       .  S
Zr1135     O1150   2.412       .  S
Zr1135     O1141   2.407       .  S
Zr1135     O1142   2.431       .  S
Zr1135     O1143   2.385       .  S
Zr1135     O1144   2.368       .  S
Zr1136     O1155   2.435       .  S
Zr1136     O1148   2.436       .  S
Zr1136     O1149   2.480       .  S
Zr1136     O1142   2.403       .  S
Zr1136     O1143   2.393       .  S
Zr1137     O1139   2.436   1_556  S
Zr1137     O1161   2.437   1_556  S
Zr1137     O1163   2.391   1_556  S
Zr1137     O1141   2.378       .  S
Zr1137     O1144   2.384       .  S
Zr1138     O1164   2.436       .  S
Zr1138     O1165   2.436       .  S
Zr1138     O1140   2.436       .  S
Zr1138     O1141   2.408       .  S
Zr1138     O1142   2.393       .  S
O1139      H1176   0.990       .  S
O1140      H1171   0.990       .  S
O1140      H1185   0.990       .  S
O1142      H1168   0.969       .  S
O1143     Zr1153   2.373       .  S
O1144     Zr1153   2.360       .  S
O1144      H1169   0.964       .  S
C1145      C2768   1.500       .  S
C1146      C2778   1.454       .  S
C1147      C2821   1.509       .  S
O1148      H1184   0.990       .  S
O1149      C1151   1.293       .  A
O1150      C1151   1.281       .  A
C1151      C3061   1.504       .  S
O1152     Zr1153   2.436       .  S
O1152      H1181   0.990       .  S
Zr1153     O1156   2.435       .  S
Zr1153     O1157   2.439       .  S
Zr1153     O1158   2.399       .  S
O1154      C1159   1.292       .  A
O1155      H1172   0.989       .  S
O1155      H1187   0.989       .  S
O1156      H1173   0.990       .  S
O1157      H1177   0.989       .  S
O1157      H1186   0.990       .  S
O1158      C1159   1.277       .  A
C1159      C2881   1.482       .  S
O1160      H1179   0.990       .  S
O1160      H1183   0.990       .  S
O1161      H1175   0.990       .  S
O1161      H1182   0.990       .  S
O1162      C1166   1.293   1_556  A
O1163      C1166   1.275       .  A
O1164      H1174   0.990       .  S
O1165      H1178   0.990       .  S
C1166      C2938   1.475       .  S
Zr1189     O1190   2.441       .  S
Zr1189     O1191   2.439       .  S
Zr1189     O1192   2.443       .  S
Zr1189     O1195   2.429       .  S
Zr1189     O1197   2.374       .  S
Zr1189     O1198   2.396       .  S
Zr1189     O1199   2.406       .  S
Zr1189     O1200   2.393       .  S
O1190      H1246   0.990       .  S
O1190      H1254   0.991       .  S
O1191      C1211   1.285       .  A
O1192      C1213   1.283       .  A
O1193     Zr1203   2.468       .  S
O1193      C1212   1.291       .  A
O1194     Zr1202   2.395       .  S
O1194      C1213   1.275       .  A
O1195      C1212   1.284       .  A
O1196     Zr1204   2.451       .  S
O1196      C1211   1.286       .  A
O1197     Zr1202   2.380       .  S
O1197     Zr1204   2.373       .  S
O1198     Zr1203   2.405       .  S
O1198     Zr1204   2.388       .  S
O1198      H1233   0.964       .  S
O1199     Zr1202   2.394       .  S
O1199     Zr1219   2.401       .  S
O1199      H1236   0.972       .  S
O1200     Zr1203   2.386       .  S
O1200     Zr1219   2.376       .  S
Zr1201     O1226   2.435       .  S
Zr1201     O1220   2.469       .  S
Zr1201     O1228   2.410       .  S
Zr1201     O1216   2.467       .  S
Zr1201     O1207   2.417       .  S
Zr1201     O1208   2.416       .  S
Zr1201     O1209   2.371       .  S
Zr1201     O1210   2.387       .  S
Zr1202     O1221   2.438       .  S
Zr1202     O1214   2.434       .  S
Zr1202     O1215   2.391       .  S
Zr1202     O1208   2.386       .  S
Zr1202     O1209   2.395       .  S
Zr1203     O1205   2.433       .  S
Zr1203     O1227   2.437       .  S
Zr1203     O1229   2.472       .  S
Zr1203     O1207   2.391       .  S
Zr1203     O1210   2.394       .  S
Zr1204     O1230   2.435       .  S
Zr1204     O1231   2.435       .  S
Zr1204     O1206   2.438       .  S
Zr1204     O1207   2.403       .  S
Zr1204     O1208   2.417       .  S
O1205      H1242   0.990       .  S
O1206      H1237   0.991       .  S
O1206      H1251   0.989       .  S
O1208      H1234   0.959       .  S
O1209     Zr1219   2.370       .  S
O1210     Zr1219   2.383       .  S
O1210      H1235   0.970       .  S
C1211      C2948   1.496       .  S
C1212      C2748   1.491       .  S
C1213      C2811   1.466       .  S
O1214      H1250   0.990       .  S
O1215      C1217   1.277       .  A
O1216      C1217   1.290       .  A
C1217      C2728   1.474       .  S
O1218     Zr1219   2.435       .  S
O1218      H1247   0.990       .  S
Zr1219     O1222   2.434       .  S
Zr1219     O1223   2.436       .  S
Zr1219     O1224   2.413       .  S
O1220      C1225   1.289       .  A
O1221      H1238   0.990       .  S
O1221      H1253   0.990       .  S
O1222      H1239   0.990       .  S
O1223      H1243   0.990       .  S
O1223      H1252   0.990       .  S
O1224      C1225   1.279       .  A
C1225      C2758   1.479       .  S
O1226      H1245   0.990       .  S
O1226      H1249   0.990       .  S
O1227      H1241   0.990       .  S
O1227      H1248   0.990       .  S
O1228      C1232   1.282       .  A
O1229      C1232   1.292       .  A
O1230      H1240   0.990       .  S
O1231      H1244   0.990       .  S
C1232      C2738   1.489       .  S
Zr1255     O1256   2.440       .  S
Zr1255     O1257   2.435       .  S
Zr1255     O1258   2.447       .  S
Zr1255     O1261   2.417       .  S
Zr1255     O1263   2.370       .  S
Zr1255     O1264   2.395       .  S
Zr1255     O1265   2.403       .  S
Zr1255     O1266   2.398       .  S
O1256      H1312   0.990       .  S
O1256      H1320   0.990       .  S
O1257      C1277   1.284       .  A
O1258      C1279   1.283       .  A
O1259     Zr1269   2.467       .  S
O1259      C1278   1.292       .  A
O1260     Zr1268   2.378       .  S
O1260      C1279   1.272       .  A
O1261      C1278   1.281       .  A
O1262     Zr1270   2.449       .  S
O1262      C1277   1.285       .  A
O1263     Zr1268   2.384       .  S
O1263     Zr1270   2.373       .  S
O1264     Zr1269   2.403       .  S
O1264     Zr1270   2.384       .  S
O1264      H1299   0.965       .  S
O1265     Zr1268   2.389       .  S
O1265     Zr1285   2.398       .  S
O1265      H1302   0.966       .  S
O1266     Zr1269   2.384       .  S
O1266     Zr1285   2.372       .  S
Zr1267     O1292   2.440       .  S
Zr1267     O1286   2.476       .  S
Zr1267     O1294   2.408       .  S
Zr1267     O1282   2.454       .  S
Zr1267     O1273   2.429       .  S
Zr1267     O1274   2.408       .  S
Zr1267     O1275   2.371       .  S
Zr1267     O1276   2.384       .  S
Zr1268     O1287   2.437   1_554  S
Zr1268     O1280   2.439       .  S
Zr1268     O1281   2.372   1_554  S
Zr1268     O1274   2.385       .  S
Zr1268     O1275   2.395       .  S
Zr1269     O1271   2.436       .  S
Zr1269     O1293   2.439       .  S
Zr1269     O1295   2.467       .  S
Zr1269     O1273   2.398       .  S
Zr1269     O1276   2.390       .  S
Zr1270     O1296   2.438       .  S
Zr1270     O1297   2.437       .  S
Zr1270     O1272   2.440       .  S
Zr1270     O1273   2.415       .  S
Zr1270     O1274   2.410       .  S
O1271      H1308   0.990       .  S
O1272      H1303   0.990       .  S
O1272      H1317   0.990       .  S
O1274      H1300   0.963       .  S
O1275     Zr1285   2.377       .  S
O1276     Zr1285   2.379       .  S
O1276      H1301   0.963       .  S
C1277      C2841   1.493       .  S
C1278      C2751   1.487       .  S
C1279      C2781   1.453       .  S
O1280      H1316   0.990       .  S
O1281      C1283   1.272       .  A
O1282      C1283   1.288   1_554  A
C1283      C2711   1.459       .  S
O1284     Zr1285   2.436       .  S
O1284      H1313   0.991       .  S
Zr1285     O1288   2.434       .  S
Zr1285     O1289   2.434       .  S
Zr1285     O1290   2.418       .  S
O1286      C1291   1.290       .  A
O1287      H1304   0.990       .  S
O1287      H1319   0.990   1_556  S
O1288      H1305   0.990       .  S
O1289      H1309   0.990       .  S
O1289      H1318   0.989       .  S
O1290      C1291   1.281       .  A
C1291      C2718   1.488       .  S
O1292      H1311   0.990       .  S
O1292      H1315   0.990       .  S
O1293      H1307   0.990       .  S
O1293      H1314   0.990       .  S
O1294      C1298   1.279       .  A
O1295      C1298   1.292       .  A
O1296      H1306   0.990       .  S
O1297      H1310   0.990       .  S
C1298      C3188   1.491       .  S
Zr1321     O1322   2.441       .  S
Zr1321     O1323   2.446       .  S
Zr1321     O1324   2.462       .  S
Zr1321     O1327   2.448       .  S
Zr1321     O1329   2.380       .  S
Zr1321     O1330   2.398       .  S
Zr1321     O1331   2.407       .  S
Zr1321     O1332   2.401       .  S
O1322      H1378   0.990       .  S
O1322      H1386   0.990       .  S
O1323      C1343   1.285       .  A
O1324      C1345   1.288       .  A
O1325     Zr1335   2.451       .  S
O1325      C1344   1.288       .  A
O1326     Zr1334   2.397       .  S
O1326      C1345   1.275       .  A
O1327      C1344   1.288       .  A
O1328     Zr1336   2.434       .  S
O1328      C1343   1.284       .  A
O1329     Zr1334   2.386       .  S
O1329     Zr1336   2.375       .  S
O1330     Zr1335   2.403       .  S
O1330     Zr1336   2.387       .  S
O1330      H1365   0.968       .  S
O1331     Zr1334   2.391       .  S
O1331     Zr1351   2.393       .  S
O1331      H1368   0.979       .  S
O1332     Zr1335   2.392       .  S
O1332     Zr1351   2.384       .  S
Zr1333     O1358   2.437       .  S
Zr1333     O1352   2.452       .  S
Zr1333     O1360   2.409       .  S
Zr1333     O1348   2.461       .  S
Zr1333     O1339   2.412       .  S
Zr1333     O1340   2.409       .  S
Zr1333     O1341   2.372       .  S
Zr1333     O1342   2.387       .  S
Zr1334     O1353   2.439       .  S
Zr1334     O1346   2.437       .  S
Zr1334     O1347   2.382       .  S
Zr1334     O1340   2.389       .  S
Zr1334     O1341   2.395       .  S
Zr1335     O1337   2.437       .  S
Zr1335     O1359   2.438       .  S
Zr1335     O1361   2.479       .  S
Zr1335     O1339   2.389       .  S
Zr1335     O1342   2.374       .  S
Zr1336     O1362   2.435       .  S
Zr1336     O1363   2.435       .  S
Zr1336     O1338   2.435       .  S
Zr1336     O1339   2.395       .  S
Zr1336     O1340   2.407       .  S
O1337      H1374   0.990       .  S
O1338      H1369   0.990       .  S
O1338      H1383   0.990       .  S
O1340      H1366   0.965       .  S
O1341     Zr1351   2.357       .  S
O1342     Zr1351   2.387       .  S
O1342      H1367   0.963       .  S
C1343      C3371   1.491       .  S
C1344      C2698   1.485       .  S
C1345      C3208   1.473       .  S
O1346      H1382   0.990       .  S
O1347      C1349   1.274       .  A
O1348      C1349   1.289       .  A
C1349      C2678   1.464       .  S
O1350     Zr1351   2.437       .  S
O1350      H1379   0.991       .  S
Zr1351     O1354   2.434       .  S
Zr1351     O1355   2.437       .  S
Zr1351     O1356   2.424       .  S
O1352      C1357   1.286       .  A
O1353      H1370   0.991       .  S
O1353      H1385   0.990       .  S
O1354      H1371   0.990       .  S
O1355      H1375   0.991       .  S
O1355      H1384   0.990       .  S
O1356      C1357   1.282       .  A
C1357      C2761   1.477       .  S
O1358      H1377   0.990       .  S
O1358      H1381   0.990       .  S
O1359      H1373   0.990       .  S
O1359      H1380   0.990       .  S
O1360      C1364   1.281       .  A
O1361      C1364   1.293       .  A
O1362      H1372   0.990       .  S
O1363      H1376   0.990       .  S
C1364      C2688   1.489       .  S
Zr1387     O1388   2.440       .  S
Zr1387     O1389   2.456       .  S
Zr1387     O1390   2.457       .  S
Zr1387     O1393   2.435       .  S
Zr1387     O1395   2.373       .  S
Zr1387     O1396   2.396       .  S
Zr1387     O1397   2.408       .  S
Zr1387     O1398   2.399       .  S
O1388      H1444   0.989       .  S
O1388      H1452   0.991       .  S
O1389      C1409   1.289       .  A
O1390      C1411   1.286       .  A
O1391     Zr1401   2.465       .  S
O1391      C1410   1.291       .  A
O1392     Zr1400   2.383       .  S
O1392      C1411   1.273       .  A
O1393      C1410   1.285       .  A
O1394     Zr1402   2.436       .  S
O1394      C1409   1.284       .  A
O1395     Zr1400   2.385       .  S
O1395     Zr1402   2.376       .  S
O1396     Zr1401   2.401       .  S
O1396     Zr1402   2.385       .  S
O1396      H1431   0.964       .  S
O1397     Zr1400   2.392       .  S
O1397     Zr1417   2.402       .  S
O1397      H1434   0.963       .  S
O1398     Zr1401   2.385       .  S
O1398     Zr1417   2.381       .  S
Zr1399     O1424   2.435       .  S
Zr1399     O1418   2.448       .  S
Zr1399     O1426   2.414       .  S
Zr1399     O1414   2.467       .  S
Zr1399     O1405   2.420       .  S
Zr1399     O1406   2.409       .  S
Zr1399     O1407   2.368       .  S
Zr1399     O1408   2.384       .  S
Zr1400     O1419   2.439       .  S
Zr1400     O1412   2.436       .  S
Zr1400     O1413   2.379       .  S
Zr1400     O1406   2.389       .  S
Zr1400     O1407   2.388       .  S
Zr1401     O1403   2.429       .  S
Zr1401     O1425   2.439       .  S
Zr1401     O1427   2.465       .  S
Zr1401     O1405   2.397       .  S
Zr1401     O1408   2.380       .  S
Zr1402     O1428   2.434       .  S
Zr1402     O1429   2.436       .  S
Zr1402     O1404   2.438       .  S
Zr1402     O1405   2.398       .  S
Zr1402     O1406   2.415       .  S
O1403      H1440   0.990       .  S
O1404      H1435   0.990       .  S
O1404      H1449   0.990       .  S
O1406      H1432   0.965       .  S
O1407     Zr1417   2.370       .  S
O1408     Zr1417   2.373       .  S
O1408      H1433   0.969       .  S
C1409      C3281   1.499       .  S
C1410      C2701   1.501       .  S
C1411      C3251   1.462       .  S
O1412      H1448   0.990       .  S
O1413      C1415   1.273       .  A
O1414      C1415   1.289       .  A
C1415      C2708   1.465       .  S
O1416     Zr1417   2.434       .  S
O1416      H1445   0.991       .  S
Zr1417     O1420   2.436       .  S
Zr1417     O1421   2.437       .  S
Zr1417     O1422   2.426       .  S
O1418      C1423   1.285       .  A
O1419      H1436   0.990       .  S
O1419      H1451   0.990       .  S
O1420      H1437   0.990       .  S
O1421      H1441   0.990       .  S
O1421      H1450   0.990       .  S
O1422      C1423   1.283       .  A
C1423      C2671   1.475       .  S
O1424      H1443   0.990       .  S
O1424      H1447   0.991       .  S
O1425      H1439   0.990       .  S
O1425      H1446   0.990       .  S
O1426      C1430   1.283       .  A
O1427      C1430   1.291       .  A
O1428      H1438   0.990       .  S
O1429      H1442   0.990       .  S
C1430      C2788   1.491       .  S
Zr1453     O1454   2.440       .  S
Zr1453     O1455   2.436       .  S
Zr1453     O1456   2.457       .  S
Zr1453     O1459   2.441   1_554  S
Zr1453     O1461   2.378       .  S
Zr1453     O1462   2.394       .  S
Zr1453     O1463   2.404       .  S
Zr1453     O1464   2.401       .  S
O1454      H1510   0.991       .  S
O1454      H1518   0.990       .  S
O1455      C1475   1.283       .  A
O1456      C1477   1.287       .  A
O1457     Zr1467   2.451   1_556  S
O1457      C1476   1.288       .  A
O1458     Zr1466   2.381       .  S
O1458      C1477   1.274       .  A
O1459      C1476   1.286       .  A
O1460     Zr1468   2.439       .  S
O1460      C1475   1.285       .  A
O1461     Zr1466   2.389       .  S
O1461     Zr1468   2.376       .  S
O1462     Zr1467   2.394       .  S
O1462     Zr1468   2.381       .  S
O1462      H1497   0.970       .  S
O1463     Zr1466   2.387       .  S
O1463     Zr1483   2.401       .  S
O1463      H1500   0.967       .  S
O1464     Zr1467   2.389       .  S
O1464     Zr1483   2.382       .  S
Zr1465     O1490   2.439       .  S
Zr1465     O1484   2.474       .  S
Zr1465     O1492   2.419       .  S
Zr1465     O1480   2.465       .  S
Zr1465     O1471   2.422       .  S
Zr1465     O1472   2.407       .  S
Zr1465     O1473   2.369       .  S
Zr1465     O1474   2.386       .  S
Zr1466     O1485   2.439       .  S
Zr1466     O1478   2.434       .  S
Zr1466     O1479   2.378       .  S
Zr1466     O1472   2.387       .  S
Zr1466     O1473   2.381       .  S
Zr1467     O1469   2.434   1_554  S
Zr1467     O1491   2.437   1_554  S
Zr1467     O1493   2.453       .  S
Zr1467     O1471   2.396       .  S
Zr1467     O1474   2.383       .  S
Zr1468     O1494   2.437       .  S
Zr1468     O1495   2.439       .  S
Zr1468     O1470   2.438       .  S
Zr1468     O1471   2.403       .  S
Zr1468     O1472   2.409       .  S
O1469      H1506   0.990       .  S
O1470      H1501   0.990       .  S
O1470      H1515   0.990       .  S
O1472      H1498   0.966       .  S
O1473     Zr1483   2.369       .  S
O1474     Zr1483   2.375       .  S
O1474      H1499   0.963       .  S
C1475      C2638   1.485       .  S
C1476      C2651   1.494       .  S
C1477      C2658   1.467       .  S
O1478      H1514   0.990       .  S
O1479      C1481   1.273       .  A
O1480      C1481   1.291       .  A
C1481      C2681   1.465       .  S
O1482     Zr1483   2.435       .  S
O1482      H1511   0.990       .  S
Zr1483     O1486   2.435       .  S
Zr1483     O1487   2.433       .  S
Zr1483     O1488   2.423       .  S
O1484      C1489   1.291       .  A
O1485      H1502   0.990       .  S
O1485      H1517   0.990       .  S
O1486      H1503   0.990       .  S
O1487      H1507   0.990       .  S
O1487      H1516   0.990       .  S
O1488      C1489   1.283       .  A
C1489      C2721   1.487       .  S
O1490      H1509   0.990       .  S
O1490      H1513   0.990       .  S
O1491      H1505   0.989       .  S
O1491      H1512   0.989       .  S
O1492      C1496   1.282       .  A
O1493      C1496   1.288       .  A
O1494      H1504   0.990       .  S
O1495      H1508   0.990       .  S
C1496      C3221   1.499       .  S
Zr1519     O1520   2.442       .  S
Zr1519     O1521   2.461       .  S
Zr1519     O1522   2.450       .  S
Zr1519     O1525   2.431       .  S
Zr1519     O1527   2.373       .  S
Zr1519     O1528   2.396       .  S
Zr1519     O1529   2.414       .  S
Zr1519     O1530   2.411       .  S
O1520      H1576   0.990       .  S
O1520      H1584   0.991       .  S
O1521      C1541   1.289       .  A
O1522      C1543   1.285       .  A
O1523     Zr1533   2.481       .  S
O1523      C1542   1.295       .  A
O1524     Zr1532   2.383       .  S
O1524      C1543   1.274       .  A
O1525      C1542   1.283       .  A
O1526     Zr1534   2.440       .  S
O1526      C1541   1.284       .  A
O1527     Zr1532   2.385       .  S
O1527     Zr1534   2.372       .  S
O1528     Zr1533   2.398       .  S
O1528     Zr1534   2.390       .  S
O1528      H1563   0.966       .  S
O1529     Zr1532   2.389       .  S
O1529     Zr1549   2.405       .  S
O1529      H1566   0.969       .  S
O1530     Zr1533   2.392       .  S
O1530     Zr1549   2.393       .  S
Zr1531     O1556   2.440       .  S
Zr1531     O1550   2.461       .  S
Zr1531     O1558   2.416       .  S
Zr1531     O1546   2.476       .  S
Zr1531     O1537   2.419       .  S
Zr1531     O1538   2.405       .  S
Zr1531     O1539   2.375       .  S
Zr1531     O1540   2.389       .  S
Zr1532     O1551   2.438       .  S
Zr1532     O1544   2.435       .  S
Zr1532     O1545   2.385       .  S
Zr1532     O1538   2.386       .  S
Zr1532     O1539   2.393       .  S
Zr1533     O1535   2.436       .  S
Zr1533     O1557   2.434       .  S
Zr1533     O1559   2.485       .  S
Zr1533     O1537   2.395       .  S
Zr1533     O1540   2.384       .  S
Zr1534     O1560   2.437       .  S
Zr1534     O1561   2.435       .  S
Zr1534     O1536   2.434       .  S
Zr1534     O1537   2.393       .  S
Zr1534     O1538   2.403       .  S
O1535      H1572   0.990       .  S
O1536      H1567   0.990       .  S
O1536      H1581   0.989       .  S
O1538      H1564   0.959       .  S
O1539     Zr1549   2.377       .  S
O1540     Zr1549   2.374       .  S
O1540      H1565   0.958       .  S
C1541      C2618   1.500       .  S
C1542      C2648   1.503       .  S
C1543      C2628   1.465       .  S
O1544      H1580   0.990       .  S
O1545      C1547   1.273       .  A
O1546      C1547   1.292       .  A
C1547      C2731   1.476       .  S
O1548     Zr1549   2.435       .  S
O1548      H1577   0.991       .  S
Zr1549     O1552   2.437       .  S
Zr1549     O1553   2.436       .  S
Zr1549     O1554   2.435       .  S
O1550      C1555   1.287       .  A
O1551      H1568   0.990       .  S
O1551      H1583   0.990       .  S
O1552      H1569   0.990       .  S
O1553      H1573   0.990       .  S
O1553      H1582   0.990       .  S
O1554      C1555   1.284       .  A
C1555      C2668   1.483       .  S
O1556      H1575   0.991       .  S
O1556      H1579   0.990       .  S
O1557      H1571   0.990       .  S
O1557      H1578   0.989       .  S
O1558      C1562   1.283       .  A
O1559      C1562   1.296       .  A
O1560      H1570   0.990       .  S
O1561      H1574   0.991       .  S
C1562      C2771   1.503       .  S
Zr1585     O1586   2.441       .  S
Zr1585     O1587   2.447       .  S
Zr1585     O1588   2.472       .  S
Zr1585     O1591   2.423       .  S
Zr1585     O1593   2.371       .  S
Zr1585     O1594   2.397       .  S
Zr1585     O1595   2.404       .  S
Zr1585     O1596   2.413       .  S
O1586      H1642   0.990       .  S
O1586      H1650   0.991   1_565  S
O1587      C1607   1.285       .  A
O1588      C1609   1.290       .  A
O1589     Zr1599   2.464       .  S
O1589      C1608   1.292       .  A
O1590     Zr1598   2.376       .  S
O1590      C1609   1.272       .  A
O1591      C1608   1.283       .  A
O1592     Zr1600   2.446       .  S
O1592      C1607   1.286       .  A
O1593     Zr1598   2.388       .  S
O1593     Zr1600   2.374       .  S
O1594     Zr1599   2.398       .  S
O1594     Zr1600   2.377       .  S
O1594      H1629   0.967       .  S
O1595     Zr1598   2.390       .  S
O1595     Zr1615   2.408       .  S
O1595      H1632   0.962       .  S
O1596     Zr1599   2.397       .  S
O1596     Zr1615   2.387       .  S
Zr1597     O1622   2.438       .  S
Zr1597     O1616   2.465       .  S
Zr1597     O1624   2.429       .  S
Zr1597     O1612   2.485       .  S
Zr1597     O1603   2.426       .  S
Zr1597     O1604   2.406       .  S
Zr1597     O1605   2.373       .  S
Zr1597     O1606   2.392       .  S
Zr1598     O1617   2.437   1_554  S
Zr1598     O1610   2.433   1_554  S
Zr1598     O1611   2.376   1_554  S
Zr1598     O1604   2.386       .  S
Zr1598     O1605   2.389       .  S
Zr1599     O1601   2.435       .  S
Zr1599     O1623   2.437       .  S
Zr1599     O1625   2.481       .  S
Zr1599     O1603   2.395       .  S
Zr1599     O1606   2.387       .  S
Zr1600     O1626   2.435       .  S
Zr1600     O1627   2.438       .  S
Zr1600     O1602   2.438       .  S
Zr1600     O1603   2.404       .  S
Zr1600     O1604   2.411       .  S
O1601      H1638   0.990       .  S
O1602      H1633   0.990       .  S
O1602      H1647   0.990       .  S
O1604      H1630   0.960       .  S
O1605     Zr1615   2.375       .  S
O1606     Zr1615   2.380       .  S
O1606      H1631   0.965       .  S
C1607      C2581   1.494       .  S
C1608      C2591   1.488       .  S
C1609      C2608   1.468       .  S
O1610      H1646   0.990   1_556  S
O1611      C1613   1.272       .  A
O1612      C1613   1.294   1_554  A
C1613      C2568   1.475       .  S
O1614     Zr1615   2.440   1_545  S
O1614      H1643   0.989       .  S
Zr1615     O1618   2.434       .  S
Zr1615     O1619   2.437       .  S
Zr1615     O1620   2.422       .  S
O1616      C1621   1.288       .  A
O1617      H1634   0.990       .  S
O1617      H1649   0.990   1_556  S
O1618      H1635   0.990       .  S
O1619      H1639   0.991       .  S
O1619      H1648   0.990       .  S
O1620      C1621   1.281       .  A
C1621      C2601   1.481       .  S
O1622      H1641   0.990       .  S
O1622      H1645   0.990       .  S
O1623      H1637   0.989       .  S
O1623      H1644   0.990       .  S
O1624      C1628   1.284       .  A
O1625      C1628   1.295       .  A
O1626      H1636   0.990       .  S
O1627      H1640   0.990       .  S
C1628      C2848   1.509       .  S
Zr1651     O1652   2.442       .  S
Zr1651     O1653   2.448       .  S
Zr1651     O1654   2.443       .  S
Zr1651     O1657   2.442       .  S
Zr1651     O1659   2.380       .  S
Zr1651     O1660   2.395       .  S
Zr1651     O1661   2.412       .  S
Zr1651     O1662   2.400       .  S
O1652      H1708   0.990       .  S
O1652      H1716   0.990       .  S
O1653      C1673   1.284       .  A
O1654      C1675   1.283       .  A
O1655     Zr1665   2.455       .  S
O1655      C1674   1.289       .  A
O1656     Zr1664   2.385       .  S
O1656      C1675   1.274       .  A
O1657      C1674   1.286       .  A
O1658     Zr1666   2.440       .  S
O1658      C1673   1.285       .  A
O1659     Zr1664   2.388       .  S
O1659     Zr1666   2.377       .  S
O1660     Zr1665   2.399       .  S
O1660     Zr1666   2.381       .  S
O1660      H1695   0.965       .  S
O1661     Zr1664   2.392       .  S
O1661     Zr1681   2.400       .  S
O1661      H1698   0.964       .  S
O1662     Zr1665   2.393       .  S
O1662     Zr1681   2.380       .  S
Zr1663     O1688   2.440       .  S
Zr1663     O1682   2.475       .  S
Zr1663     O1690   2.403       .  S
Zr1663     O1678   2.471       .  S
Zr1663     O1669   2.419       .  S
Zr1663     O1670   2.407       .  S
Zr1663     O1671   2.377       .  S
Zr1663     O1672   2.385       .  S
Zr1664     O1683   2.439       .  S
Zr1664     O1676   2.436       .  S
Zr1664     O1677   2.383       .  S
Zr1664     O1670   2.389       .  S
Zr1664     O1671   2.396       .  S
Zr1665     O1667   2.435       .  S
Zr1665     O1689   2.439       .  S
Zr1665     O1691   2.469       .  S
Zr1665     O1669   2.395       .  S
Zr1665     O1672   2.384       .  S
Zr1666     O1692   2.435       .  S
Zr1666     O1693   2.436       .  S
Zr1666     O1668   2.437       .  S
Zr1666     O1669   2.397       .  S
Zr1666     O1670   2.404       .  S
O1667      H1704   0.990       .  S
O1668      H1699   0.990       .  S
O1668      H1713   0.990       .  S
O1670      H1696   0.960       .  S
O1671     Zr1681   2.380       .  S
O1672     Zr1681   2.379       .  S
O1672      H1697   0.961       .  S
C1673      C2541   1.490       .  S
C1674      C2588   1.492       .  S
C1675      C2548   1.465       .  S
O1676      H1712   0.990       .  S
O1677      C1679   1.274       .  A
O1678      C1679   1.290       .  A
C1679      C2528   1.469       .  S
O1680     Zr1681   2.436       .  S
O1680      H1709   0.990       .  S
Zr1681     O1684   2.436       .  S
Zr1681     O1685   2.433       .  S
Zr1681     O1686   2.408       .  S
O1682      C1687   1.290       .  A
O1683      H1700   0.990       .  S
O1683      H1715   0.990       .  S
O1684      H1701   0.989       .  S
O1685      H1705   0.990       .  S
O1685      H1714   0.990       .  S
O1686      C1687   1.279       .  A
C1687      C2558   1.482       .  S
O1688      H1707   0.990       .  S
O1688      H1711   0.990       .  S
O1689      H1703   0.990       .  S
O1689      H1710   0.991       .  S
O1690      C1694   1.279       .  A
O1691      C1694   1.292       .  A
O1692      H1702   0.990       .  S
O1693      H1706   0.990       .  S
C1694      C3408   1.491       .  S
Zr1717     O1718   2.440       .  S
Zr1717     O1719   2.437       .  S
Zr1717     O1720   2.459       .  S
Zr1717     O1723   2.447   1_554  S
Zr1717     O1725   2.380       .  S
Zr1717     O1726   2.396       .  S
Zr1717     O1727   2.405       .  S
Zr1717     O1728   2.399       .  S
O1718      H1774   0.990       .  S
O1718      H1782   0.991       .  S
O1719      C1739   1.284       .  A
O1720      C1741   1.287       .  A
O1721     Zr1731   2.461   1_556  S
O1721      C1740   1.291       .  A
O1722     Zr1730   2.377       .  S
O1722      C1741   1.273       .  A
O1723      C1740   1.288       .  A
O1724     Zr1732   2.460       .  S
O1724      C1739   1.288       .  A
O1725     Zr1730   2.389       .  S
O1725     Zr1732   2.375       .  S
O1726     Zr1731   2.406       .  S
O1726     Zr1732   2.381       .  S
O1726      H1761   0.967   1_554  S
O1727     Zr1730   2.394       .  S
O1727     Zr1747   2.386       .  S
O1727      H1764   0.966       .  S
O1728     Zr1731   2.395       .  S
O1728     Zr1747   2.381       .  S
Zr1729     O1754   2.440   1_545  S
Zr1729     O1748   2.468   1_545  S
Zr1729     O1756   2.423   1_545  S
Zr1729     O1744   2.459       .  S
Zr1729     O1735   2.422       .  S
Zr1729     O1736   2.415       .  S
Zr1729     O1737   2.374       .  S
Zr1729     O1738   2.387       .  S
Zr1730     O1749   2.439       .  S
Zr1730     O1742   2.435       .  S
Zr1730     O1743   2.396       .  S
Zr1730     O1736   2.382       .  S
Zr1730     O1737   2.386       .  S
Zr1731     O1733   2.435   1_554  S
Zr1731     O1755   2.435   1_554  S
Zr1731     O1757   2.487   1_544  S
Zr1731     O1735   2.394       .  S
Zr1731     O1738   2.378       .  S
Zr1732     O1758   2.435       .  S
Zr1732     O1759   2.436       .  S
Zr1732     O1734   2.437       .  S
Zr1732     O1735   2.408       .  S
Zr1732     O1736   2.418       .  S
O1733      H1770   0.990       .  S
O1734      H1765   0.990       .  S
O1734      H1779   0.990       .  S
O1736      H1762   0.963       .  S
O1737     Zr1747   2.367       .  S
O1738     Zr1747   2.382       .  S
O1738      H1763   0.961       .  S
C1739      C3231   1.499       .  S
C1740      C2518   1.498       .  S
C1741      C3451   1.462       .  S
O1742      H1778   0.990       .  S
O1743      C1745   1.276       .  A
O1744      C1745   1.289       .  A
C1745      C2511   1.470       .  S
O1746     Zr1747   2.437       .  S
O1746      H1775   0.990       .  S
Zr1747     O1750   2.434       .  S
Zr1747     O1751   2.435       .  S
Zr1747     O1752   2.405       .  S
O1748      C1753   1.290       .  A
O1749      H1766   0.989       .  S
O1749      H1781   0.990       .  S
O1750      H1767   0.990       .  S
O1751      H1771   0.990       .  S
O1751      H1780   0.990       .  S
O1752      C1753   1.279   1_545  A
C1753      C2598   1.476       .  S
O1754      H1773   0.990       .  S
O1754      H1777   0.990       .  S
O1755      H1769   0.989       .  S
O1755      H1776   0.990       .  S
O1756      C1760   1.284       .  A
O1757      C1760   1.296   1_556  A
O1758      H1768   0.990       .  S
O1759      H1772   0.990       .  S
C1760      C2871   1.502       .  S
Zr1783     O1784   2.440       .  S
Zr1783     O1785   2.451       .  S
Zr1783     O1786   2.443       .  S
Zr1783     O1789   2.438       .  S
Zr1783     O1791   2.375       .  S
Zr1783     O1792   2.389       .  S
Zr1783     O1793   2.407       .  S
Zr1783     O1794   2.395       .  S
O1784      H1840   0.989       .  S
O1784      H1848   0.992       .  S
O1785      C1805   1.287       .  A
O1786      C1807   1.283       .  A
O1787     Zr1797   2.466       .  S
O1787      C1806   1.291       .  A
O1788     Zr1796   2.403       .  S
O1788      C1807   1.277       .  A
O1789      C1806   1.286       .  A
O1790     Zr1798   2.454       .  S
O1790      C1805   1.287       .  A
O1791     Zr1796   2.387       .  S
O1791     Zr1798   2.374       .  S
O1792     Zr1797   2.401       .  S
O1792     Zr1798   2.384       .  S
O1792      H1827   0.971       .  S
O1793     Zr1796   2.392       .  S
O1793     Zr1813   2.399       .  S
O1793      H1830   0.960       .  S
O1794     Zr1797   2.385       .  S
O1794     Zr1813   2.382       .  S
Zr1795     O1820   2.439       .  S
Zr1795     O1814   2.473       .  S
Zr1795     O1822   2.425       .  S
Zr1795     O1810   2.471       .  S
Zr1795     O1801   2.416       .  S
Zr1795     O1802   2.414       .  S
Zr1795     O1803   2.375       .  S
Zr1795     O1804   2.384       .  S
Zr1796     O1815   2.438       .  S
Zr1796     O1808   2.436       .  S
Zr1796     O1809   2.391       .  S
Zr1796     O1802   2.389       .  S
Zr1796     O1803   2.400       .  S
Zr1797     O1799   2.433       .  S
Zr1797     O1821   2.437       .  S
Zr1797     O1823   2.468       .  S
Zr1797     O1801   2.390       .  S
Zr1797     O1804   2.385       .  S
Zr1798     O1824   2.437       .  S
Zr1798     O1825   2.435       .  S
Zr1798     O1800   2.436       .  S
Zr1798     O1801   2.399       .  S
Zr1798     O1802   2.415       .  S
O1799      H1836   0.990       .  S
O1800      H1831   0.990       .  S
O1800      H1845   0.990       .  S
O1802      H1828   0.961       .  S
O1803     Zr1813   2.373       .  S
O1804     Zr1813   2.378       .  S
O1804      H1829   0.963       .  S
C1805      C3308   1.505       .  S
C1806      C2521   1.500       .  S
C1807      C3381   1.466       .  S
O1808      H1844   0.990       .  S
O1809      C1811   1.275       .  A
O1810      C1811   1.290       .  A
C1811      C2531   1.471       .  S
O1812     Zr1813   2.436       .  S
O1812      H1841   0.990       .  S
Zr1813     O1816   2.438       .  S
Zr1813     O1817   2.437       .  S
Zr1813     O1818   2.423       .  S
O1814      C1819   1.290       .  A
O1815      H1832   0.989       .  S
O1815      H1847   0.990       .  S
O1816      H1833   0.990       .  S
O1817      H1837   0.990       .  S
O1817      H1846   0.990       .  S
O1818      C1819   1.281       .  A
C1819      C2501   1.484       .  S
O1820      H1839   0.990       .  S
O1820      H1843   0.990       .  S
O1821      H1835   0.990       .  S
O1821      H1842   0.990       .  S
O1822      C1826   1.285       .  A
O1823      C1826   1.292       .  A
O1824      H1834   0.990       .  S
O1825      H1838   0.990       .  S
C1826      C2488   1.498       .  S
Zr1849     O1850   2.442       .  S
Zr1849     O1851   2.437       .  S
Zr1849     O1852   2.470       .  S
Zr1849     O1855   2.435       .  S
Zr1849     O1857   2.376       .  S
Zr1849     O1858   2.399       .  S
Zr1849     O1859   2.402       .  S
Zr1849     O1860   2.406       .  S
O1850      H1906   0.991       .  S
O1850      H1914   0.990       .  S
O1851      C1871   1.283       .  A
O1852      C1873   1.289       .  A
O1853     Zr1863   2.462       .  S
O1853      C1872   1.290       .  A
O1854     Zr1862   2.410       .  S
O1854      C1873   1.278       .  A
O1855      C1872   1.285       .  A
O1856     Zr1864   2.418       .  S
O1856      C1871   1.280       .  A
O1857     Zr1862   2.383       .  S
O1857     Zr1864   2.380       .  S
O1858     Zr1863   2.403       .  S
O1858     Zr1864   2.383       .  S
O1858      H1893   0.971       .  S
O1859     Zr1862   2.391       .  S
O1859     Zr1879   2.402       .  S
O1859      H1896   0.973       .  S
O1860     Zr1863   2.395       .  S
O1860     Zr1879   2.387       .  S
Zr1861     O1886   2.438       .  S
Zr1861     O1880   2.461       .  S
Zr1861     O1888   2.439       .  S
Zr1861     O1876   2.469       .  S
Zr1861     O1867   2.416   1_545  S
Zr1861     O1868   2.411   1_545  S
Zr1861     O1869   2.381   1_545  S
Zr1861     O1870   2.386   1_545  S
Zr1862     O1881   2.436       .  S
Zr1862     O1874   2.436       .  S
Zr1862     O1875   2.390       .  S
Zr1862     O1868   2.394       .  S
Zr1862     O1869   2.398       .  S
Zr1863     O1865   2.436       .  S
Zr1863     O1887   2.437       .  S
Zr1863     O1889   2.483   1_565  S
Zr1863     O1867   2.398       .  S
Zr1863     O1870   2.374       .  S
Zr1864     O1890   2.435       .  S
Zr1864     O1891   2.436       .  S
Zr1864     O1866   2.437       .  S
Zr1864     O1867   2.395       .  S
Zr1864     O1868   2.395       .  S
O1865      H1902   0.990       .  S
O1866      H1897   0.991       .  S
O1866      H1911   0.990       .  S
O1868      H1894   0.960       .  S
O1869     Zr1879   2.368       .  S
O1870     Zr1879   2.375       .  S
O1870      H1895   0.960   1_565  S
C1871      C2921   1.481       .  S
C1872      C2481   1.491       .  S
C1873      C2861   1.481       .  S
O1874      H1910   0.990       .  S
O1875      C1877   1.275       .  A
O1876      C1877   1.293   1_545  A
C1877      C2508   1.471       .  S
O1878     Zr1879   2.435       .  S
O1878      H1907   0.990       .  S
Zr1879     O1882   2.434       .  S
Zr1879     O1883   2.435       .  S
Zr1879     O1884   2.430   1_565  S
O1880      C1885   1.288       .  A
O1881      H1898   0.990       .  S
O1881      H1913   0.990       .  S
O1882      H1899   0.990       .  S
O1883      H1903   0.990       .  S
O1883      H1912   0.990       .  S
O1884      C1885   1.283       .  A
C1885      C2561   1.481       .  S
O1886      H1905   0.990       .  S
O1886      H1909   0.990       .  S
O1887      H1901   0.990       .  S
O1887      H1908   0.990       .  S
O1888      C1892   1.287       .  A
O1889      C1892   1.295       .  A
O1890      H1900   0.990       .  S
O1891      H1904   0.990       .  S
C1892      C3361   1.510       .  S
Zr1915     O1916   2.440       .  S
Zr1915     O1917   2.445       .  S
Zr1915     O1918   2.445       .  S
Zr1915     O1921   2.448       .  S
Zr1915     O1923   2.379       .  S
Zr1915     O1924   2.399       .  S
Zr1915     O1925   2.402       .  S
Zr1915     O1926   2.388       .  S
O1916      H1972   0.990       .  S
O1916      H1980   0.991       .  S
O1917      C1937   1.287       .  A
O1918      C1939   1.283       .  A
O1919     Zr1929   2.465       .  S
O1919      C1938   1.291       .  A
O1920     Zr1928   2.383       .  S
O1920      C1939   1.274       .  A
O1921      C1938   1.287       .  A
O1922     Zr1930   2.452       .  S
O1922      C1937   1.287       .  A
O1923     Zr1928   2.387       .  S
O1923     Zr1930   2.374       .  S
O1924     Zr1929   2.396       .  S
O1924     Zr1930   2.389       .  S
O1924      H1959   0.965       .  S
O1925     Zr1928   2.387       .  S
O1925     Zr1945   2.393       .  S
O1925      H1962   0.965       .  S
O1926     Zr1929   2.381       .  S
O1926     Zr1945   2.374       .  S
Zr1927     O1952   2.441       .  S
Zr1927     O1946   2.476       .  S
Zr1927     O1954   2.431       .  S
Zr1927     O1942   2.490       .  S
Zr1927     O1933   2.425       .  S
Zr1927     O1934   2.419       .  S
Zr1927     O1935   2.372       .  S
Zr1927     O1936   2.391       .  S
Zr1928     O1947   2.437       .  S
Zr1928     O1940   2.437       .  S
Zr1928     O1941   2.381       .  S
Zr1928     O1934   2.393       .  S
Zr1928     O1935   2.393       .  S
Zr1929     O1931   2.431       .  S
Zr1929     O1953   2.438       .  S
Zr1929     O1955   2.460       .  S
Zr1929     O1933   2.390       .  S
Zr1929     O1936   2.398       .  S
Zr1930     O1956   2.436       .  S
Zr1930     O1957   2.436       .  S
Zr1930     O1932   2.436       .  S
Zr1930     O1933   2.402       .  S
Zr1930     O1934   2.415       .  S
O1931      H1968   0.990       .  S
O1932      H1963   0.990       .  S
O1932      H1977   0.990       .  S
O1934      H1960   0.957       .  S
O1935     Zr1945   2.370       .  S
O1936     Zr1945   2.388       .  S
O1936      H1961   0.964       .  S
C1937      C2801   1.499       .  S
C1938      C2478   1.505       .  S
C1939      C2901   1.456       .  S
O1940      H1976   0.990       .  S
O1941      C1943   1.273       .  A
O1942      C1943   1.294       .  A
C1943      C2571   1.477       .  S
O1944     Zr1945   2.439       .  S
O1944      H1973   0.990       .  S
Zr1945     O1948   2.438       .  S
Zr1945     O1949   2.434       .  S
Zr1945     O1950   2.407       .  S
O1946      C1951   1.290       .  A
O1947      H1964   0.989       .  S
O1947      H1979   0.990       .  S
O1948      H1965   0.989       .  S
O1949      H1969   0.991       .  S
O1949      H1978   0.989       .  S
O1950      C1951   1.278       .  A
C1951      C2498   1.483       .  S
O1952      H1971   0.990       .  S
O1952      H1975   0.991       .  S
O1953      H1967   0.990       .  S
O1953      H1974   0.990       .  S
O1954      C1958   1.286       .  A
O1955      C1958   1.289       .  A
O1956      H1966   0.990       .  S
O1957      H1970   0.990       .  S
C1958      C2468   1.497       .  S
Zr1981     O1982   2.443       .  S
Zr1981     O1983   2.452       .  S
Zr1981     O1984   2.453       .  S
Zr1981     O1987   2.456       .  S
Zr1981     O1989   2.390       .  S
Zr1981     O1990   2.383       .  S
Zr1981     O1991   2.418       .  S
Zr1981     O1992   2.405       .  S
O1982      H2038   0.990       .  S
O1982      H2046   0.990       .  S
O1983      C2003   1.286       .  A
O1984      C2005   1.287   1_556  A
O1985     Zr1995   2.393       .  S
O1985      C2004   1.277       .  A
O1986     Zr1994   2.473   1_554  S
O1986      C2005   1.293       .  A
O1987      C2004   1.288       .  A
O1988     Zr1996   2.420       .  S
O1988      C2003   1.280       .  A
O1989     Zr1994   2.407       .  S
O1989     Zr1996   2.387       .  S
O1990     Zr1995   2.387       .  S
O1990     Zr1996   2.371       .  S
O1990      H2025   0.967       .  S
O1991     Zr1994   2.412       .  S
O1991     Zr2011   2.376       .  S
O1991      H2028   0.959       .  S
O1992     Zr1995   2.391       .  S
O1992     Zr2011   2.397       .  S
Zr1993     O2018   2.438       .  S
Zr1993     O2012   2.466       .  S
Zr1993     O2020   2.471       .  S
Zr1993     O2008   2.445       .  S
Zr1993     O1999   2.415   1_545  S
Zr1993     O2000   2.421   1_545  S
Zr1993     O2001   2.378   1_545  S
Zr1993     O2002   2.377   1_545  S
Zr1994     O2013   2.433   1_556  S
Zr1994     O2006   2.434   1_556  S
Zr1994     O2007   2.474   1_565  S
Zr1994     O2000   2.408       .  S
Zr1994     O2001   2.396       .  S
Zr1995     O1997   2.437       .  S
Zr1995     O2019   2.437       .  S
Zr1995     O2021   2.399       .  S
Zr1995     O1999   2.387       .  S
Zr1995     O2002   2.389       .  S
Zr1996     O2022   2.438       .  S
Zr1996     O2023   2.435       .  S
Zr1996     O1998   2.437       .  S
Zr1996     O1999   2.403       .  S
Zr1996     O2000   2.380       .  S
O1997      H2034   0.990       .  S
O1998      H2029   0.990       .  S
O1998      H2043   0.990   1_556  S
O2000      H2026   0.951       .  S
O2001     Zr2011   2.378       .  S
O2002     Zr2011   2.356       .  S
O2002      H2027   0.963       .  S
C2003      C3018   1.489       .  S
C2004      C3181   1.473       .  S
C2005      C2461   1.497       .  S
O2006      H2042   0.990       .  S
O2007      C2009   1.293       .  A
O2008      C2009   1.288       .  A
C2009      C2641   1.499       .  S
O2010     Zr2011   2.437       .  S
O2010      H2039   0.990       .  S
Zr2011     O2014   2.436       .  S
Zr2011     O2015   2.441       .  S
Zr2011     O2016   2.418   1_565  S
O2012      C2017   1.289       .  A
O2013      H2030   0.990       .  S
O2013      H2045   0.989       .  S
O2014      H2031   0.990       .  S
O2015      H2035   0.990       .  S
O2015      H2044   0.990       .  S
O2016      C2017   1.280       .  A
C2017      C2448   1.483       .  S
O2018      H2037   0.989       .  S
O2018      H2041   0.990       .  S
O2019      H2033   0.990       .  S
O2019      H2040   0.990       .  S
O2020      C2024   1.292   1_545  A
O2021      C2024   1.276       .  A
O2022      H2032   0.990       .  S
O2023      H2036   0.990       .  S
C2024      C2438   1.477   1_565  S
Zr2047     O2048   2.441       .  S
Zr2047     O2049   2.470       .  S
Zr2047     O2050   2.450       .  S
Zr2047     O2053   2.468       .  S
Zr2047     O2055   2.393       .  S
Zr2047     O2056   2.376       .  S
Zr2047     O2057   2.430       .  S
Zr2047     O2058   2.408       .  S
O2048      H2104   0.989       .  S
O2048      H2112   0.991       .  S
O2049      C2069   1.290       .  A
O2050      C2071   1.287       .  A
O2051     Zr2061   2.378       .  S
O2051      C2070   1.274       .  A
O2052     Zr2060   2.487       .  S
O2052      C2071   1.296       .  A
O2053      C2070   1.291       .  A
O2054     Zr2062   2.413       .  S
O2054      C2069   1.280       .  A
O2055     Zr2060   2.406       .  S
O2055     Zr2062   2.386       .  S
O2056     Zr2061   2.388       .  S
O2056     Zr2062   2.373       .  S
O2056      H2091   0.969       .  S
O2057     Zr2060   2.413       .  S
O2057     Zr2077   2.375       .  S
O2057      H2094   0.967       .  S
O2058     Zr2061   2.377       .  S
O2058     Zr2077   2.399       .  S
Zr2059     O2084   2.439       .  S
Zr2059     O2078   2.457       .  S
Zr2059     O2086   2.465       .  S
Zr2059     O2074   2.436       .  S
Zr2059     O2065   2.408       .  S
Zr2059     O2066   2.420       .  S
Zr2059     O2067   2.393       .  S
Zr2059     O2068   2.377       .  S
Zr2060     O2079   2.429       .  S
Zr2060     O2072   2.435       .  S
Zr2060     O2073   2.495       .  S
Zr2060     O2066   2.408       .  S
Zr2060     O2067   2.403       .  S
Zr2061     O2063   2.435       .  S
Zr2061     O2085   2.437       .  S
Zr2061     O2087   2.383       .  S
Zr2061     O2065   2.386       .  S
Zr2061     O2068   2.381       .  S
Zr2062     O2088   2.437       .  S
Zr2062     O2089   2.435       .  S
Zr2062     O2064   2.438       .  S
Zr2062     O2065   2.400       .  S
Zr2062     O2066   2.383       .  S
O2063      H2100   0.990       .  S
O2064      H2095   0.988       .  S
O2064      H2109   0.990       .  S
O2066      H2092   0.978       .  S
O2067     Zr2077   2.382       .  S
O2068     Zr2077   2.361       .  S
O2068      H2093   0.963       .  S
C2069      C2991   1.491       .  S
C2070      C3121   1.475       .  S
C2071      C2458   1.510       .  S
O2072      H2108   0.990       .  S
O2073      C2075   1.296       .  A
O2074      C2075   1.286       .  A
C2075      C2578   1.504       .  S
O2076     Zr2077   2.439       .  S
O2076      H2105   0.990       .  S
Zr2077     O2080   2.437       .  S
Zr2077     O2081   2.440       .  S
Zr2077     O2082   2.415       .  S
O2078      C2083   1.287       .  A
O2079      H2096   0.987       .  S
O2079      H2111   0.991       .  S
O2080      H2097   0.991       .  S
O2081      H2101   0.990       .  S
O2081      H2110   0.990       .  S
O2082      C2083   1.282       .  A
C2083      C2428   1.480       .  S
O2084      H2103   0.991       .  S
O2084      H2107   0.989       .  S
O2085      H2099   0.990       .  S
O2085      H2106   0.990       .  S
O2086      C2090   1.290       .  A
O2087      C2090   1.273       .  A
O2088      H2098   0.989       .  S
O2089      H2102   0.990       .  S
C2090      C2418   1.467       .  S
Zr2113     O2114   2.443       .  S
Zr2113     O2115   2.455       .  S
Zr2113     O2116   2.453       .  S
Zr2113     O2119   2.447       .  S
Zr2113     O2121   2.393       .  S
Zr2113     O2122   2.383       .  S
Zr2113     O2123   2.422       .  S
Zr2113     O2124   2.406       .  S
O2114      H2170   0.990       .  S
O2114      H2178   0.990       .  S
O2115      C2135   1.286       .  A
O2116      C2137   1.287       .  A
O2117     Zr2127   2.382       .  S
O2117      C2136   1.275       .  A
O2118     Zr2126   2.478       .  S
O2118      C2137   1.295       .  A
O2119      C2136   1.286       .  A
O2120     Zr2128   2.427       .  S
O2120      C2135   1.281       .  A
O2121     Zr2126   2.407       .  S
O2121     Zr2128   2.390       .  S
O2122     Zr2127   2.383       .  S
O2122     Zr2128   2.373       .  S
O2122      H2157   0.967       .  S
O2123     Zr2126   2.407       .  S
O2123     Zr2143   2.375       .  S
O2123      H2160   0.965       .  S
O2124     Zr2127   2.387       .  S
O2124     Zr2143   2.398       .  S
Zr2125     O2150   2.439       .  S
Zr2125     O2144   2.460       .  S
Zr2125     O2152   2.484       .  S
Zr2125     O2140   2.444       .  S
Zr2125     O2131   2.409       .  S
Zr2125     O2132   2.429       .  S
Zr2125     O2133   2.387       .  S
Zr2125     O2134   2.375       .  S
Zr2126     O2145   2.431       .  S
Zr2126     O2138   2.437       .  S
Zr2126     O2139   2.474       .  S
Zr2126     O2132   2.411       .  S
Zr2126     O2133   2.396       .  S
Zr2127     O2129   2.435       .  S
Zr2127     O2151   2.435       .  S
Zr2127     O2153   2.382       .  S
Zr2127     O2131   2.381       .  S
Zr2127     O2134   2.389       .  S
Zr2128     O2154   2.437       .  S
Zr2128     O2155   2.435       .  S
Zr2128     O2130   2.436       .  S
Zr2128     O2131   2.406       .  S
Zr2128     O2132   2.383       .  S
O2129      H2166   0.990       .  S
O2130      H2161   0.990       .  S
O2130      H2175   0.990       .  S
O2132      H2158   0.961       .  S
O2133     Zr2143   2.375       .  S
O2134     Zr2143   2.352       .  S
O2134      H2159   0.970       .  S
C2135      C2471   1.486       .  S
C2136      C2551   1.469       .  S
C2137      C2408   1.501       .  S
O2138      H2174   0.990       .  S
O2139      C2141   1.293       .  A
O2140      C2141   1.288       .  A
C2141      C3148   1.496       .  S
O2142     Zr2143   2.439   1_545  S
O2142      H2171   0.990       .  S
Zr2143     O2146   2.437       .  S
Zr2143     O2147   2.439       .  S
Zr2143     O2148   2.436       .  S
O2144      C2149   1.288       .  A
O2145      H2162   0.990       .  S
O2145      H2177   0.989       .  S
O2146      H2163   0.991       .  S
O2147      H2167   0.990       .  S
O2147      H2176   0.990       .  S
O2148      C2149   1.285       .  A
C2149      C2401   1.488       .  S
O2150      H2169   0.990       .  S
O2150      H2173   0.989       .  S
O2151      H2165   0.990       .  S
O2151      H2172   0.990       .  S
O2152      C2156   1.295       .  A
O2153      C2156   1.274       .  A
O2154      H2164   0.990       .  S
O2155      H2168   0.990       .  S
C2156      C2421   1.471       .  S
Zr2179     O2180   2.443       .  S
Zr2179     O2181   2.453       .  S
Zr2179     O2182   2.448       .  S
Zr2179     O2185   2.464       .  S
Zr2179     O2187   2.401       .  S
Zr2179     O2188   2.378       .  S
Zr2179     O2189   2.426       .  S
Zr2179     O2190   2.402       .  S
O2180      H2236   0.990       .  S
O2180      H2244   0.990       .  S
O2181      C2201   1.286       .  A
O2182      C2203   1.286       .  A
O2183     Zr2193   2.376       .  S
O2183      C2202   1.273       .  A
O2184     Zr2192   2.489       .  S
O2184      C2203   1.296       .  A
O2185      C2202   1.289       .  A
O2186     Zr2194   2.423       .  S
O2186      C2201   1.282       .  A
O2187     Zr2192   2.408       .  S
O2187     Zr2194   2.388       .  S
O2188     Zr2193   2.383       .  S
O2188     Zr2194   2.373       .  S
O2188      H2223   0.968       .  S
O2189     Zr2192   2.418       .  S
O2189     Zr2209   2.371       .  S
O2189      H2226   0.966       .  S
O2190     Zr2193   2.387       .  S
O2190     Zr2209   2.395       .  S
Zr2191     O2216   2.438       .  S
Zr2191     O2210   2.460       .  S
Zr2191     O2218   2.477       .  S
Zr2191     O2206   2.431       .  S
Zr2191     O2197   2.401       .  S
Zr2191     O2198   2.425       .  S
Zr2191     O2199   2.387       .  S
Zr2191     O2200   2.375       .  S
Zr2192     O2211   2.432       .  S
Zr2192     O2204   2.435       .  S
Zr2192     O2205   2.494       .  S
Zr2192     O2198   2.407       .  S
Zr2192     O2199   2.394       .  S
Zr2193     O2195   2.436   1_556  S
Zr2193     O2217   2.436       .  S
Zr2193     O2219   2.381   1_556  S
Zr2193     O2197   2.382       .  S
Zr2193     O2200   2.386       .  S
Zr2194     O2220   2.438       .  S
Zr2194     O2221   2.435       .  S
Zr2194     O2196   2.435       .  S
Zr2194     O2197   2.397       .  S
Zr2194     O2198   2.392       .  S
O2195      H2232   0.990       .  S
O2196      H2227   0.990       .  S
O2196      H2241   0.989       .  S
O2198      H2224   0.972       .  S
O2199     Zr2209   2.373       .  S
O2200     Zr2209   2.364       .  S
O2200      H2225   0.970       .  S
C2201      C2491   1.487       .  S
C2202      C2611   1.467       .  S
C2203      C2411   1.510       .  S
O2204      H2240   0.990       .  S
O2205      C2207   1.296       .  A
O2206      C2207   1.284       .  A
C2207      C2621   1.520       .  S
O2208     Zr2209   2.438       .  S
O2208      H2237   0.990       .  S
Zr2209     O2212   2.439       .  S
Zr2209     O2213   2.438       .  S
Zr2209     O2214   2.410       .  S
O2210      C2215   1.287       .  A
O2211      H2228   0.990       .  S
O2211      H2243   0.988       .  S
O2212      H2229   0.990       .  S
O2213      H2233   0.990       .  S
O2213      H2242   0.990       .  S
O2214      C2215   1.280       .  A
C2215      C2451   1.479       .  S
O2216      H2235   0.990       .  S
O2216      H2239   0.989       .  S
O2217      H2231   0.990       .  S
O2217      H2238   0.990   1_556  S
O2218      C2222   1.294   1_556  A
O2219      C2222   1.274       .  A
O2220      H2230   0.990       .  S
O2221      H2234   0.990       .  S
C2222      C2391   1.473       .  S
Zr2245     O2246   2.442       .  S
Zr2245     O2247   2.440       .  S
Zr2245     O2248   2.438       .  S
Zr2245     O2251   2.449       .  S
Zr2245     O2253   2.393       .  S
Zr2245     O2254   2.382       .  S
Zr2245     O2255   2.420       .  S
Zr2245     O2256   2.399       .  S
O2246      H2302   0.991       .  S
O2246      H2310   0.989       .  S
O2247      C2267   1.283       .  A
O2248      C2269   1.284       .  A
O2249     Zr2259   2.394       .  S
O2249      C2268   1.277       .  A
O2250     Zr2258   2.483       .  S
O2250      C2269   1.295       .  A
O2251      C2268   1.286       .  A
O2252     Zr2260   2.424       .  S
O2252      C2267   1.283       .  A
O2253     Zr2258   2.404       .  S
O2253     Zr2260   2.388       .  S
O2254     Zr2259   2.378       .  S
O2254     Zr2260   2.367       .  S
O2254      H2289   0.969       .  S
O2255     Zr2258   2.414       .  S
O2255     Zr2275   2.374       .  S
O2255      H2292   0.962       .  S
O2256     Zr2259   2.385       .  S
O2256     Zr2275   2.388       .  S
Zr2257     O2282   2.440   1_545  S
Zr2257     O2276   2.481   1_545  S
Zr2257     O2284   2.465       .  S
Zr2257     O2272   2.426   1_545  S
Zr2257     O2263   2.417       .  S
Zr2257     O2264   2.429       .  S
Zr2257     O2265   2.380       .  S
Zr2257     O2266   2.376       .  S
Zr2258     O2277   2.433       .  S
Zr2258     O2270   2.435       .  S
Zr2258     O2271   2.469   1_545  S
Zr2258     O2264   2.409       .  S
Zr2258     O2265   2.401       .  S
Zr2259     O2261   2.435       .  S
Zr2259     O2283   2.439       .  S
Zr2259     O2285   2.392       .  S
Zr2259     O2263   2.383       .  S
Zr2259     O2266   2.395       .  S
Zr2260     O2286   2.436       .  S
Zr2260     O2287   2.437       .  S
Zr2260     O2262   2.436       .  S
Zr2260     O2263   2.404       .  S
Zr2260     O2264   2.385       .  S
O2261      H2298   0.990       .  S
O2262      H2293   0.990       .  S
O2262      H2307   0.989       .  S
O2264      H2290   0.965       .  S
O2265     Zr2275   2.378       .  S
O2266     Zr2275   2.368       .  S
O2266      H2291   0.962       .  S
C2267      C2691   1.490       .  S
C2268      C2631   1.467       .  S
C2269      C2381   1.502       .  S
O2270      H2306   0.990       .  S
O2271      C2273   1.291       .  A
O2272      C2273   1.284       .  A
C2273      C3101   1.490       .  S
O2274     Zr2275   2.435       .  S
O2274      H2303   0.990       .  S
Zr2275     O2278   2.435       .  S
Zr2275     O2279   2.441       .  S
Zr2275     O2280   2.405       .  S
O2276      C2281   1.291       .  A
O2277      H2294   0.990       .  S
O2277      H2309   0.989       .  S
O2278      H2295   0.990       .  S
O2279      H2299   0.990       .  S
O2279      H2308   0.990       .  S
O2280      C2281   1.278   1_545  A
C2281      C2398   1.485       .  S
O2282      H2301   0.990       .  S
O2282      H2305   0.990       .  S
O2283      H2297   0.990       .  S
O2283      H2304   0.990       .  S
O2284      C2288   1.290       .  A
O2285      C2288   1.275       .  A
O2286      H2296   0.989       .  S
O2287      H2300   0.990       .  S
C2288      C2441   1.470       .  S
Zr2311     O2312   2.444       .  S
Zr2311     O2313   2.454       .  S
Zr2311     O2314   2.432       .  S
Zr2311     O2317   2.454       .  S
Zr2311     O2319   2.392       .  S
Zr2311     O2320   2.381       .  S
Zr2311     O2321   2.427       .  S
Zr2311     O2322   2.402       .  S
O2312      H2368   0.989       .  S
O2312      H2376   0.992       .  S
O2313      C2333   1.287       .  A
O2314      C2335   1.282       .  A
O2315     Zr2325   2.383       .  S
O2315      C2334   1.274       .  A
O2316     Zr2324   2.483       .  S
O2316      C2335   1.295       .  A
O2317      C2334   1.287       .  A
O2318     Zr2326   2.423       .  S
O2318      C2333   1.282       .  A
O2319     Zr2324   2.403       .  S
O2319     Zr2326   2.388       .  S
O2320     Zr2325   2.385       .  S
O2320     Zr2326   2.376       .  S
O2320      H2355   0.966       .  S
O2321     Zr2324   2.416       .  S
O2321     Zr2341   2.375       .  S
O2321      H2358   0.961       .  S
O2322     Zr2325   2.386       .  S
O2322     Zr2341   2.394       .  S
Zr2323     O2348   2.437       .  S
Zr2323     O2342   2.437       .  S
Zr2323     O2350   2.482       .  S
Zr2323     O2338   2.435       .  S
Zr2323     O2329   2.405       .  S
Zr2323     O2330   2.419       .  S
Zr2323     O2331   2.389       .  S
Zr2323     O2332   2.377       .  S
Zr2324     O2343   2.436       .  S
Zr2324     O2336   2.434       .  S
Zr2324     O2337   2.490       .  S
Zr2324     O2330   2.405       .  S
Zr2324     O2331   2.402       .  S
Zr2325     O2327   2.436       .  S
Zr2325     O2349   2.436       .  S
Zr2325     O2351   2.380       .  S
Zr2325     O2329   2.383       .  S
Zr2325     O2332   2.393       .  S
Zr2326     O2352   2.435       .  S
Zr2326     O2353   2.435       .  S
Zr2326     O2328   2.438       .  S
Zr2326     O2329   2.401       .  S
Zr2326     O2330   2.382       .  S
O2327      H2364   0.990       .  S
O2328      H2359   0.990       .  S
O2328      H2373   0.989       .  S
O2330      H2356   0.958       .  S
O2331     Zr2341   2.379       .  S
O2332     Zr2341   2.357       .  S
O2332      H2357   0.968       .  S
C2333      C2741   1.490       .  S
C2334      C2661   1.470       .  S
C2335      C2378   1.493       .  S
O2336      H2372   0.990       .  S
O2337      C2339   1.296       .  A
O2338      C2339   1.287       .  A
C2339      C2538   1.508       .  S
O2340     Zr2341   2.435       .  S
O2340      H2369   0.990       .  S
Zr2341     O2344   2.434       .  S
Zr2341     O2345   2.438       .  S
Zr2341     O2346   2.418       .  S
O2342      C2347   1.282       .  A
O2343      H2360   0.990       .  S
O2343      H2375   0.989       .  S
O2344      H2361   0.990       .  S
O2345      H2365   0.990       .  S
O2345      H2374   0.989       .  S
O2346      C2347   1.280       .  A
C2347      C2431   1.473       .  S
O2348      H2367   0.991       .  S
O2348      H2371   0.989       .  S
O2349      H2363   0.990       .  S
O2349      H2370   0.990       .  S
O2350      C2354   1.292       .  A
O2351      C2354   1.273       .  A
O2352      H2362   0.990       .  S
O2353      H2366   0.990       .  S
C2354      C2388   1.472       .  S
C2377      C2378   1.414       .  A
C2377      C2382   1.417       .  A
C2377     Br2384   1.932       .  S
C2378      C2379   1.412       .  A
C2379      C2380   1.408       .  A
C2379     Br2386   1.932       .  S
C2380      C2381   1.416       .  A
C2380     Br2385   1.926       .  S
C2381      C2382   1.420       .  A
C2382     Br2383   1.932       .  S
C2387      C2388   1.411       .  A
C2387      C2392   1.403       .  A
C2387     Br2394   1.931       .  S
C2388      C2389   1.408       .  A
C2389      C2390   1.412       .  A
C2389     Br2396   1.927       .  S
C2390      C2391   1.414       .  A
C2390     Br2395   1.929       .  S
C2391      C2392   1.407       .  A
C2392     Br2393   1.929       .  S
C2397      C2398   1.413       .  A
C2397      C2402   1.414       .  A
C2397     Br2404   1.927       .  S
C2398      C2399   1.407       .  A
C2399      C2400   1.411       .  A
C2399     Br2406   1.927       .  S
C2400      C2401   1.411       .  A
C2400     Br2405   1.923       .  S
C2401      C2402   1.408       .  A
C2402     Br2403   1.924       .  S
C2407      C2408   1.414       .  A
C2407      C2412   1.419   1_565  A
C2407     Br2414   1.931       .  S
C2408      C2409   1.414       .  A
C2409      C2410   1.412   1_565  A
C2409     Br2416   1.931       .  S
C2410      C2411   1.419       .  A
C2410     Br2415   1.928       .  S
C2411      C2412   1.422       .  A
C2412     Br2413   1.933       .  S
C2417      C2418   1.409       .  A
C2417      C2422   1.410       .  A
C2417     Br2424   1.929       .  S
C2418      C2419   1.406       .  A
C2419      C2420   1.404       .  A
C2419     Br2426   1.930       .  S
C2420      C2421   1.411       .  A
C2420     Br2425   1.929       .  S
C2421      C2422   1.410       .  A
C2422     Br2423   1.927       .  S
C2427      C2428   1.409       .  A
C2427      C2432   1.405   1_565  A
C2427     Br2434   1.921       .  S
C2428      C2429   1.408       .  A
C2429      C2430   1.411   1_565  A
C2429     Br2436   1.923       .  S
C2430      C2431   1.410       .  A
C2430     Br2435   1.926       .  S
C2431      C2432   1.403       .  A
C2432     Br2433   1.927       .  S
C2437      C2438   1.409       .  A
C2437      C2442   1.402       .  A
C2437     Br2444   1.921       .  S
C2438      C2439   1.412       .  A
C2439      C2440   1.413       .  A
C2439     Br2446   1.928   1_545  S
C2440      C2441   1.409       .  A
C2440     Br2445   1.926       .  S
C2441      C2442   1.406       .  A
C2442     Br2443   1.932       .  S
C2447      C2448   1.407       .  A
C2447      C2452   1.407       .  A
C2447     Br2454   1.918       .  S
C2448      C2449   1.412       .  A
C2449      C2450   1.412       .  A
C2449     Br2456   1.922       .  S
C2450      C2451   1.405       .  A
C2450     Br2455   1.922       .  S
C2451      C2452   1.408       .  A
C2452     Br2453   1.928       .  S
C2457      C2458   1.422       .  A
C2457      C2462   1.418       .  A
C2457     Br2464   1.931       .  S
C2458      C2459   1.419       .  A
C2459      C2460   1.412       .  A
C2459     Br2466   1.928       .  S
C2460      C2461   1.412       .  A
C2460     Br2465   1.930       .  S
C2461      C2462   1.412       .  A
C2462     Br2463   1.932       .  S
C2467      C2468   1.415       .  A
C2467      C2472   1.409       .  A
C2467     Br2474   1.932       .  S
C2468      C2469   1.417       .  A
C2469      C2470   1.415       .  A
C2469     Br2476   1.927       .  S
C2470      C2471   1.411       .  A
C2470     Br2475   1.929       .  S
C2471      C2472   1.408       .  A
C2472     Br2473   1.928       .  S
C2477      C2478   1.420       .  A
C2477      C2482   1.412       .  A
C2477     Br2484   1.930       .  S
C2478      C2479   1.421       .  A
C2479      C2480   1.414       .  A
C2479     Br2486   1.931       .  S
C2480      C2481   1.411       .  A
C2480     Br2485   1.932       .  S
C2481      C2482   1.411       .  A
C2482     Br2483   1.935       .  S
C2487      C2488   1.418       .  A
C2487      C2492   1.408       .  A
C2487     Br2494   1.931       .  S
C2488      C2489   1.417       .  A
C2489      C2490   1.416       .  A
C2489     Br2496   1.928       .  S
C2490      C2491   1.412       .  A
C2490     Br2495   1.927       .  S
C2491      C2492   1.407       .  A
C2492     Br2493   1.932       .  S
C2497      C2498   1.406       .  A
C2497      C2502   1.412   1_565  A
C2497     Br2504   1.924       .  S
C2498      C2499   1.413       .  A
C2499      C2500   1.411   1_565  A
C2499     Br2506   1.928       .  S
C2500      C2501   1.406       .  A
C2500     Br2505   1.926       .  S
C2501      C2502   1.413       .  A
C2502     Br2503   1.926       .  S
C2507      C2508   1.408   1_545  A
C2507      C2512   1.406       .  A
C2507     Br2514   1.930   1_545  S
C2508      C2509   1.410       .  A
C2509      C2510   1.408   1_565  A
C2509     Br2516   1.928       .  S
C2510      C2511   1.408       .  A
C2510     Br2515   1.929       .  S
C2511      C2512   1.409       .  A
C2512     Br2513   1.929       .  S
C2517      C2518   1.412       .  A
C2517      C2522   1.410       .  A
C2517     Br2524   1.925       .  S
C2518      C2519   1.416       .  A
C2519      C2520   1.416       .  A
C2519     Br2526   1.930       .  S
C2520      C2521   1.417       .  A
C2520     Br2525   1.930       .  S
C2521      C2522   1.416       .  A
C2522     Br2523   1.930       .  S
C2527      C2528   1.405       .  A
C2527      C2532   1.401       .  A
C2527     Br2534   1.927       .  S
C2528      C2529   1.412       .  A
C2529      C2530   1.413       .  A
C2529     Br2536   1.929       .  S
C2530      C2531   1.410       .  A
C2530     Br2535   1.927       .  S
C2531      C2532   1.407       .  A
C2532     Br2533   1.930       .  S
C2537      C2538   1.420       .  A
C2537      C2542   1.420       .  A
C2537     Br2544   1.926       .  S
C2538      C2539   1.422       .  A
C2539      C2540   1.409       .  A
C2539     Br2546   1.930       .  S
C2540      C2541   1.405       .  A
C2540     Br2545   1.935       .  S
C2541      C2542   1.412       .  A
C2542     Br2543   1.930       .  S
C2547      C2548   1.408   1_565  A
C2547      C2552   1.403       .  A
C2547     Br2554   1.934       .  S
C2548      C2549   1.411       .  A
C2549      C2550   1.403       .  A
C2549     Br2556   1.934       .  S
C2550      C2551   1.409   1_545  A
C2550     Br2555   1.933       .  S
C2551      C2552   1.413       .  A
C2552     Br2553   1.933       .  S
C2557      C2558   1.414       .  A
C2557      C2562   1.410       .  A
C2557     Br2564   1.928       .  S
C2558      C2559   1.404       .  A
C2559      C2560   1.410       .  A
C2559     Br2566   1.921       .  S
C2560      C2561   1.414       .  A
C2560     Br2565   1.927       .  S
C2561      C2562   1.405       .  A
C2562     Br2563   1.923       .  S
C2567      C2568   1.410       .  A
C2567      C2572   1.413       .  A
C2567     Br2574   1.928       .  S
C2568      C2569   1.409       .  A
C2569      C2570   1.407       .  A
C2569     Br2576   1.931       .  S
C2570      C2571   1.410       .  A
C2570     Br2575   1.927       .  S
C2571      C2572   1.410       .  A
C2572     Br2573   1.928       .  S
C2577      C2578   1.415       .  A
C2577      C2582   1.417       .  A
C2577     Br2584   1.923       .  S
C2578      C2579   1.418       .  A
C2579      C2580   1.412       .  A
C2579     Br2586   1.930       .  S
C2580      C2581   1.409       .  A
C2580     Br2585   1.931       .  S
C2581      C2582   1.413       .  A
C2582     Br2583   1.929       .  S
C2587      C2588   1.416       .  A
C2587      C2592   1.409   1_545  A
C2587     Br2594   1.931       .  S
C2588      C2589   1.415       .  A
C2589      C2590   1.412   1_545  A
C2589     Br2596   1.933       .  S
C2590      C2591   1.414       .  A
C2590     Br2595   1.933       .  S
C2591      C2592   1.412       .  A
C2592     Br2593   1.931       .  S
C2597      C2598   1.405       .  A
C2597      C2602   1.411       .  A
C2597     Br2604   1.926       .  S
C2598      C2599   1.414       .  A
C2599      C2600   1.407       .  A
C2599     Br2606   1.930       .  S
C2600      C2601   1.405       .  A
C2600     Br2605   1.925       .  S
C2601      C2602   1.414       .  A
C2602     Br2603   1.927       .  S
C2607      C2608   1.412       .  A
C2607      C2612   1.406   1_554  A
C2607     Br2614   1.929       .  S
C2608      C2609   1.407   1_565  A
C2609      C2610   1.404   1_554  A
C2609     Br2616   1.931       .  S
C2610      C2611   1.411       .  A
C2610     Br2615   1.931       .  S
C2611      C2612   1.406   1_545  A
C2612     Br2613   1.930       .  S
C2617      C2618   1.412       .  A
C2617      C2622   1.420       .  A
C2617     Br2624   1.930       .  S
C2618      C2619   1.407       .  A
C2619      C2620   1.414       .  A
C2619     Br2626   1.929       .  S
C2620      C2621   1.427       .  A
C2620     Br2625   1.935       .  S
C2621      C2622   1.424       .  A
C2622     Br2623   1.931       .  S
C2627      C2628   1.408       .  A
C2627      C2632   1.403       .  A
C2627     Br2634   1.932       .  S
C2628      C2629   1.410       .  A
C2629      C2630   1.406       .  A
C2629     Br2636   1.932       .  S
C2630      C2631   1.408       .  A
C2630     Br2635   1.928       .  S
C2631      C2632   1.410       .  A
C2632     Br2633   1.931       .  S
C2637      C2638   1.406   1_556  A
C2637      C2642   1.407       .  A
C2637     Br2644   1.933       .  S
C2638      C2639   1.411       .  A
C2639      C2640   1.416       .  A
C2639     Br2646   1.928       .  S
C2640      C2641   1.416   1_554  A
C2640     Br2645   1.927       .  S
C2641      C2642   1.419       .  A
C2642     Br2643   1.930       .  S
C2647      C2648   1.421       .  A
C2647      C2652   1.414       .  A
C2647     Br2654   1.926       .  S
C2648      C2649   1.414       .  A
C2649      C2650   1.412       .  A
C2649     Br2656   1.931       .  S
C2650      C2651   1.415       .  A
C2650     Br2655   1.929       .  S
C2651      C2652   1.412       .  A
C2652     Br2653   1.936       .  S
C2657      C2658   1.410       .  A
C2657      C2662   1.406       .  A
C2657     Br2664   1.931       .  S
C2658      C2659   1.408       .  A
C2659      C2660   1.403       .  A
C2659     Br2666   1.932       .  S
C2660      C2661   1.412       .  A
C2660     Br2665   1.933       .  S
C2661      C2662   1.410       .  A
C2662     Br2663   1.931       .  S
C2667      C2668   1.413       .  A
C2667      C2672   1.404       .  A
C2667     Br2674   1.925       .  S
C2668      C2669   1.409       .  A
C2669      C2670   1.411       .  A
C2669     Br2676   1.917       .  S
C2670      C2671   1.407       .  A
C2670     Br2675   1.922       .  S
C2671      C2672   1.400       .  A
C2672     Br2673   1.918       .  S
C2677      C2678   1.406       .  A
C2677      C2682   1.404       .  A
C2677     Br2684   1.929       .  S
C2678      C2679   1.408       .  A
C2679      C2680   1.406       .  A
C2679     Br2686   1.929       .  S
C2680      C2681   1.409       .  A
C2680     Br2685   1.929       .  S
C2681      C2682   1.408       .  A
C2682     Br2683   1.929       .  S
C2687      C2688   1.411       .  A
C2687      C2692   1.414       .  A
C2687     Br2694   1.925       .  S
C2688      C2689   1.413       .  A
C2689      C2690   1.408       .  A
C2689     Br2696   1.932       .  S
C2690      C2691   1.411       .  A
C2690     Br2695   1.932       .  S
C2691      C2692   1.417       .  A
C2692     Br2693   1.933       .  S
C2697      C2698   1.411       .  A
C2697      C2702   1.413       .  A
C2697     Br2704   1.929       .  S
C2698      C2699   1.406       .  A
C2699      C2700   1.409       .  A
C2699     Br2706   1.935       .  S
C2700      C2701   1.419       .  A
C2700     Br2705   1.924       .  S
C2701      C2702   1.419       .  A
C2702     Br2703   1.930       .  S
C2707      C2708   1.409       .  A
C2707      C2712   1.402       .  A
C2707     Br2714   1.925       .  S
C2708      C2709   1.408       .  A
C2709      C2710   1.406       .  A
C2709     Br2716   1.928       .  S
C2710      C2711   1.407       .  A
C2710     Br2715   1.929       .  S
C2711      C2712   1.405       .  A
C2712     Br2713   1.930       .  S
C2717      C2718   1.413       .  A
C2717      C2722   1.414       .  A
C2717     Br2724   1.927       .  S
C2718      C2719   1.406       .  A
C2719      C2720   1.411       .  A
C2719     Br2726   1.920       .  S
C2720      C2721   1.412       .  A
C2720     Br2725   1.928       .  S
C2721      C2722   1.407       .  A
C2722     Br2723   1.921       .  S
C2727      C2728   1.408       .  A
C2727      C2732   1.412       .  A
C2727     Br2734   1.926       .  S
C2728      C2729   1.410       .  A
C2729      C2730   1.403       .  A
C2729     Br2736   1.931       .  S
C2730      C2731   1.407       .  A
C2730     Br2735   1.926       .  S
C2731      C2732   1.414       .  A
C2732     Br2733   1.929       .  S
C2737      C2738   1.413       .  A
C2737      C2742   1.408       .  A
C2737     Br2744   1.932       .  S
C2738      C2739   1.411       .  A
C2739      C2740   1.414       .  A
C2739     Br2746   1.926       .  S
C2740      C2741   1.416       .  A
C2740     Br2745   1.932       .  S
C2741      C2742   1.412       .  A
C2742     Br2743   1.930       .  S
C2747      C2748   1.415       .  A
C2747      C2752   1.412       .  A
C2747     Br2754   1.929       .  S
C2748      C2749   1.414       .  A
C2749      C2750   1.407       .  A
C2749     Br2756   1.931       .  S
C2750      C2751   1.412       .  A
C2750     Br2755   1.928       .  S
C2751      C2752   1.413       .  A
C2752     Br2753   1.929       .  S
C2757      C2758   1.407       .  A
C2757      C2762   1.408       .  A
C2757     Br2764   1.929       .  S
C2758      C2759   1.413       .  A
C2759      C2760   1.410       .  A
C2759     Br2766   1.923       .  S
C2760      C2761   1.404       .  A
C2760     Br2765   1.928       .  S
C2761      C2762   1.413       .  A
C2762     Br2763   1.928       .  S
C2767      C2768   1.417       .  A
C2767      C2772   1.417       .  A
C2767     Br2774   1.931       .  S
C2768      C2769   1.410       .  A
C2769      C2770   1.411       .  A
C2769     Br2776   1.925       .  S
C2770      C2771   1.421       .  A
C2770     Br2775   1.936       .  S
C2771      C2772   1.415       .  A
C2772     Br2773   1.929       .  S
C2777      C2778   1.405       .  A
C2777      C2782   1.400   1_556  A
C2777     Br2784   1.930       .  S
C2778      C2779   1.408   1_556  A
C2779      C2780   1.402       .  A
C2779     Br2786   1.932   1_554  S
C2780      C2781   1.407       .  A
C2780     Br2785   1.930       .  S
C2781      C2782   1.406       .  A
C2782     Br2783   1.928       .  S
C2787      C2788   1.416       .  A
C2787      C2792   1.406       .  A
C2787     Br2794   1.932       .  S
C2788      C2789   1.416       .  A
C2789      C2790   1.412       .  A
C2789     Br2796   1.926       .  S
C2790      C2791   1.409       .  A
C2790     Br2795   1.930       .  S
C2791      C2792   1.409       .  A
C2792     Br2793   1.931       .  S
C2797      C2798   1.420       .  A
C2797      C2802   1.419       .  A
C2797     Br2804   1.929       .  S
C2798      C2799   1.422       .  A
C2799      C2800   1.410       .  A
C2799     Br2806   1.935       .  S
C2800      C2801   1.410       .  A
C2800     Br2805   1.931       .  S
C2801      C2802   1.414       .  A
C2802     Br2803   1.929       .  S
C2807      C2808   1.411       .  A
C2807      C2812   1.402       .  A
C2807     Br2814   1.934       .  S
C2808      C2809   1.408       .  A
C2809      C2810   1.405       .  A
C2809     Br2816   1.929       .  S
C2810      C2811   1.411       .  A
C2810     Br2815   1.931       .  S
C2811      C2812   1.408       .  A
C2812     Br2813   1.932       .  S
C2817      C2818   1.411       .  A
C2817      C2822   1.409       .  A
C2817     Br2824   1.929       .  S
C2818      C2819   1.410       .  A
C2819      C2820   1.416       .  A
C2819     Br2826   1.934       .  S
C2820      C2821   1.423       .  A
C2820     Br2825   1.921       .  S
C2821      C2822   1.418       .  A
C2822     Br2823   1.929       .  S
C2827      C2828   1.407       .  A
C2827      C2832   1.403       .  A
C2827     Br2834   1.926       .  S
C2828      C2829   1.411       .  A
C2829      C2830   1.412       .  A
C2829     Br2836   1.927       .  S
C2830      C2831   1.409       .  A
C2830     Br2835   1.927       .  S
C2831      C2832   1.409       .  A
C2832     Br2833   1.929       .  S
C2837      C2838   1.424       .  A
C2837      C2842   1.407       .  A
C2837     Br2844   1.936       .  S
C2838      C2839   1.426       .  A
C2839      C2840   1.421       .  A
C2839     Br2846   1.931       .  S
C2840      C2841   1.411       .  A
C2840     Br2845   1.930       .  S
C2841      C2842   1.405       .  A
C2842     Br2843   1.931       .  S
C2847      C2848   1.420       .  A
C2847      C2852   1.418       .  A
C2847     Br2854   1.935       .  S
C2848      C2849   1.414       .  A
C2849      C2850   1.419       .  A
C2849     Br2856   1.934       .  S
C2850      C2851   1.423       .  A
C2850     Br2855   1.931       .  S
C2851      C2852   1.418       .  A
C2852     Br2853   1.933       .  S
C2857      C2858   1.409       .  A
C2857      C2862   1.407       .  A
C2857     Br2864   1.932       .  S
C2858      C2859   1.410       .  A
C2859      C2860   1.411       .  A
C2859     Br2866   1.930       .  S
C2860      C2861   1.414       .  A
C2860     Br2865   1.928       .  S
C2861      C2862   1.410       .  A
C2862     Br2863   1.929       .  S
C2867      C2868   1.423   1_554  A
C2867      C2872   1.416       .  A
C2867     Br2874   1.934       .  S
C2868      C2869   1.425       .  A
C2869      C2870   1.418       .  A
C2869     Br2876   1.932       .  S
C2870      C2871   1.410   1_556  A
C2870     Br2875   1.930       .  S
C2871      C2872   1.413       .  A
C2872     Br2873   1.930       .  S
C2877      C2878   1.408       .  A
C2877      C2882   1.415       .  A
C2877     Br2884   1.927       .  S
C2878      C2879   1.409       .  A
C2879      C2880   1.407       .  A
C2879     Br2886   1.930       .  S
C2880      C2881   1.408       .  A
C2880     Br2885   1.918       .  S
C2881      C2882   1.413       .  A
C2882     Br2883   1.927       .  S
C2887      C2888   1.420       .  A
C2887      C2892   1.406       .  A
C2887     Br2894   1.932       .  S
C2888      C2889   1.409       .  A
C2889      C2890   1.407       .  A
C2889     Br2896   1.933       .  S
C2890      C2891   1.417       .  A
C2890     Br2895   1.933       .  S
C2891      C2892   1.404       .  A
C2892     Br2893   1.932       .  S
C2897      C2898   1.410       .  A
C2897      C2902   1.403       .  A
C2897     Br2904   1.928       .  S
C2898      C2899   1.407       .  A
C2899      C2900   1.403       .  A
C2899     Br2906   1.931       .  S
C2900      C2901   1.407       .  A
C2900     Br2905   1.931       .  S
C2901      C2902   1.404       .  A
C2902     Br2903   1.931       .  S
C2907      C2908   1.408       .  A
C2907      C2912   1.402       .  A
C2907     Br2914   1.928       .  S
C2908      C2909   1.408       .  A
C2909      C2910   1.408       .  A
C2909     Br2916   1.927       .  S
C2910      C2911   1.407       .  A
C2910     Br2915   1.928       .  S
C2911      C2912   1.406       .  A
C2912     Br2913   1.931       .  S
C2917      C2918   1.413       .  A
C2917      C2922   1.406       .  A
C2917     Br2924   1.933       .  S
C2918      C2919   1.410       .  A
C2919      C2920   1.409       .  A
C2919     Br2926   1.927       .  S
C2920      C2921   1.413       .  A
C2920     Br2925   1.928       .  S
C2921      C2922   1.410       .  A
C2922     Br2923   1.931       .  S
C2927      C2928   1.411       .  A
C2927      C2932   1.406       .  A
C2927     Br2934   1.927       .  S
C2928      C2929   1.408       .  A
C2929      C2930   1.412       .  A
C2929     Br2936   1.922       .  S
C2930      C2931   1.411       .  A
C2930     Br2935   1.929       .  S
C2931      C2932   1.405       .  A
C2932     Br2933   1.926       .  S
C2937      C2938   1.410       .  A
C2937      C2942   1.412       .  A
C2937     Br2944   1.926       .  S
C2938      C2939   1.409       .  A
C2939      C2940   1.403       .  A
C2939     Br2946   1.922       .  S
C2940      C2941   1.407       .  A
C2940     Br2945   1.930       .  S
C2941      C2942   1.410       .  A
C2942     Br2943   1.928       .  S
C2947      C2948   1.414       .  A
C2947      C2952   1.423       .  A
C2947     Br2954   1.930       .  S
C2948      C2949   1.406       .  A
C2949      C2950   1.408       .  A
C2949     Br2956   1.931       .  S
C2950      C2951   1.423       .  A
C2950     Br2955   1.935       .  S
C2951      C2952   1.423       .  A
C2952     Br2953   1.928       .  S
C2957      C2958   1.420       .  A
C2957      C2962   1.413       .  A
C2957     Br2964   1.920       .  S
C2958      C2959   1.416       .  A
C2959      C2960   1.407       .  A
C2959     Br2966   1.929       .  S
C2960      C2961   1.414       .  A
C2960     Br2965   1.931       .  S
C2961      C2962   1.409       .  A
C2962     Br2963   1.935       .  S
C2967      C2968   1.411       .  A
C2967      C2972   1.416       .  A
C2967     Br2974   1.927       .  S
C2968      C2969   1.407       .  A
C2969      C2970   1.413       .  A
C2969     Br2976   1.920       .  S
C2970      C2971   1.412       .  A
C2970     Br2975   1.926       .  S
C2971      C2972   1.410       .  A
C2972     Br2973   1.922       .  S
C2977      C2978   1.418       .  A
C2977      C2982   1.420       .  A
C2977     Br2984   1.931       .  S
C2978      C2979   1.414       .  A
C2979      C2980   1.414       .  A
C2979     Br2986   1.924       .  S
C2980      C2981   1.418       .  A
C2980     Br2985   1.934       .  S
C2981      C2982   1.417       .  A
C2982     Br2983   1.927       .  S
C2987      C2988   1.413       .  A
C2987      C2992   1.409       .  A
C2987     Br2994   1.934       .  S
C2988      C2989   1.415       .  A
C2989      C2990   1.416       .  A
C2989     Br2996   1.925       .  S
C2990      C2991   1.412       .  A
C2990     Br2995   1.930       .  S
C2991      C2992   1.413       .  A
C2992     Br2993   1.928       .  S
C2997      C2998   1.408       .  A
C2997      C3002   1.410   1_655  A
C2997     Br3004   1.935       .  S
C2998      C2999   1.416       .  A
C2999      C3000   1.416   1_655  A
C2999     Br3006   1.928       .  S
C3000      C3001   1.417       .  A
C3000     Br3005   1.932       .  S
C3001      C3002   1.419       .  A
C3002     Br3003   1.921       .  S
C3007      C3008   1.414   1_556  A
C3007      C3012   1.407       .  A
C3007     Br3014   1.933       .  S
C3008      C3009   1.411       .  A
C3009      C3010   1.416       .  A
C3009     Br3016   1.928       .  S
C3010      C3011   1.418       .  A
C3010     Br3015   1.931       .  S
C3011      C3012   1.411   1_554  A
C3012     Br3013   1.933       .  S
C3017      C3018   1.413   1_554  A
C3017      C3022   1.409       .  A
C3017     Br3024   1.930       .  S
C3018      C3019   1.414       .  A
C3019      C3020   1.413       .  A
C3019     Br3026   1.934       .  S
C3020      C3021   1.413   1_556  A
C3020     Br3025   1.927       .  S
C3021      C3022   1.413       .  A
C3022     Br3023   1.933       .  S
C3027      C3028   1.413       .  A
C3027      C3032   1.406       .  A
C3027     Br3034   1.934       .  S
C3028      C3029   1.408       .  A
C3029      C3030   1.404       .  A
C3029     Br3036   1.932       .  S
C3030      C3031   1.410       .  A
C3030     Br3035   1.931       .  S
C3031      C3032   1.409       .  A
C3032     Br3033   1.931       .  S
C3037      C3038   1.413       .  A
C3037      C3042   1.412       .  A
C3037     Br3044   1.926       .  S
C3038      C3039   1.404       .  A
C3039      C3040   1.409       .  A
C3039     Br3046   1.924       .  S
C3040      C3041   1.413       .  A
C3040     Br3045   1.925       .  S
C3041      C3042   1.407       .  A
C3042     Br3043   1.925       .  S
C3047      C3048   1.410       .  A
C3047      C3052   1.410       .  A
C3047     Br3054   1.928       .  S
C3048      C3049   1.408       .  A
C3049      C3050   1.403       .  A
C3049     Br3056   1.929       .  S
C3050      C3051   1.407       .  A
C3050     Br3055   1.932       .  S
C3051      C3052   1.410       .  A
C3052     Br3053   1.928       .  S
C3057      C3058   1.410       .  A
C3057      C3062   1.415       .  A
C3057     Br3064   1.932       .  S
C3058      C3059   1.406       .  A
C3059      C3060   1.408       .  A
C3059     Br3066   1.929       .  S
C3060      C3061   1.423       .  A
C3060     Br3065   1.937       .  S
C3061      C3062   1.421       .  A
C3062     Br3063   1.931       .  S
C3067      C3068   1.411       .  A
C3067      C3072   1.405       .  A
C3067     Br3074   1.929       .  S
C3068      C3069   1.410       .  A
C3069      C3070   1.402       .  A
C3069     Br3076   1.931       .  S
C3070      C3071   1.408       .  A
C3070     Br3075   1.933       .  S
C3071      C3072   1.406       .  A
C3072     Br3073   1.931       .  S
C3077      C3078   1.417       .  A
C3077      C3082   1.413       .  A
C3077     Br3084   1.927       .  S
C3078      C3079   1.414       .  A
C3079      C3080   1.410       .  A
C3079     Br3086   1.931       .  S
C3080      C3081   1.414       .  A
C3080     Br3085   1.930       .  S
C3081      C3082   1.414       .  A
C3082     Br3083   1.934       .  S
C3087      C3088   1.407       .  A
C3087      C3092   1.403       .  A
C3087     Br3094   1.928       .  S
C3088      C3089   1.411       .  A
C3089      C3090   1.410       .  A
C3089     Br3096   1.929       .  S
C3090      C3091   1.409       .  A
C3090     Br3095   1.928       .  S
C3091      C3092   1.407       .  A
C3092     Br3093   1.928       .  S
C3097      C3098   1.413       .  A
C3097      C3102   1.405       .  A
C3097     Br3104   1.920       .  S
C3098      C3099   1.419       .  A
C3099      C3100   1.418       .  A
C3099     Br3106   1.927       .  S
C3100      C3101   1.414       .  A
C3100     Br3105   1.931       .  S
C3101      C3102   1.410       .  A
C3102     Br3103   1.936       .  S
C3107      C3108   1.415       .  A
C3107      C3112   1.411       .  A
C3107     Br3114   1.931       .  S
C3108      C3109   1.415       .  A
C3109      C3110   1.418       .  A
C3109     Br3116   1.927       .  S
C3110      C3111   1.414       .  A
C3110     Br3115   1.927       .  S
C3111      C3112   1.412       .  A
C3112     Br3113   1.930       .  S
C3117      C3118   1.411       .  A
C3117      C3122   1.408       .  A
C3117     Br3124   1.931       .  S
C3118      C3119   1.411       .  A
C3119      C3120   1.407       .  A
C3119     Br3126   1.929       .  S
C3120      C3121   1.408       .  A
C3120     Br3125   1.931       .  S
C3121      C3122   1.414       .  A
C3122     Br3123   1.934       .  S
C3127      C3128   1.405       .  A
C3127      C3132   1.410       .  A
C3127     Br3134   1.924       .  S
C3128      C3129   1.413       .  A
C3129      C3130   1.412       .  A
C3129     Br3136   1.925       .  S
C3130      C3131   1.407       .  A
C3130     Br3135   1.927       .  S
C3131      C3132   1.416       .  A
C3132     Br3133   1.929       .  S
C3137      C3138   1.411       .  A
C3137      C3142   1.410       .  A
C3137     Br3144   1.922       .  S
C3138      C3139   1.413       .  A
C3139      C3140   1.415       .  A
C3139     Br3146   1.927       .  S
C3140      C3141   1.409       .  A
C3140     Br3145   1.928       .  S
C3141      C3142   1.410       .  A
C3142     Br3143   1.930       .  S
C3147      C3148   1.414       .  A
C3147      C3152   1.417       .  A
C3147     Br3154   1.927       .  S
C3148      C3149   1.415       .  A
C3149      C3150   1.408       .  A
C3149     Br3156   1.931       .  S
C3150      C3151   1.409       .  A
C3150     Br3155   1.932       .  S
C3151      C3152   1.414       .  A
C3152     Br3153   1.930       .  S
C3157      C3158   1.411   1_655  A
C3157      C3162   1.407       .  A
C3157     Br3164   1.923   1_655  S
C3158      C3159   1.405   1_455  A
C3159      C3160   1.408       .  A
C3159     Br3166   1.917   1_655  S
C3160      C3161   1.412       .  A
C3160     Br3165   1.929       .  S
C3161      C3162   1.403       .  A
C3162     Br3163   1.922       .  S
C3167      C3168   1.412       .  A
C3167      C3172   1.409       .  A
C3167     Br3174   1.937       .  S
C3168      C3169   1.414       .  A
C3169      C3170   1.411       .  A
C3169     Br3176   1.931       .  S
C3170      C3171   1.415       .  A
C3170     Br3175   1.928       .  S
C3171      C3172   1.415       .  A
C3172     Br3173   1.918       .  S
C3177      C3178   1.406       .  A
C3177      C3182   1.405       .  A
C3177     Br3184   1.932       .  S
C3178      C3179   1.409       .  A
C3179      C3180   1.405       .  A
C3179     Br3186   1.932       .  S
C3180      C3181   1.410       .  A
C3180     Br3185   1.931       .  S
C3181      C3182   1.413       .  A
C3182     Br3183   1.931       .  S
C3187      C3188   1.409       .  A
C3187      C3192   1.409       .  A
C3187     Br3194   1.933       .  S
C3188      C3189   1.418       .  A
C3189      C3190   1.413       .  A
C3189     Br3196   1.934       .  S
C3190      C3191   1.417       .  A
C3190     Br3195   1.936       .  S
C3191      C3192   1.418       .  A
C3192     Br3193   1.929       .  S
C3197      C3198   1.408       .  A
C3197      C3202   1.404       .  A
C3197     Br3204   1.924       .  S
C3198      C3199   1.412       .  A
C3199      C3200   1.417       .  A
C3199     Br3206   1.931       .  S
C3200      C3201   1.422       .  A
C3200     Br3205   1.930       .  S
C3201      C3202   1.415       .  A
C3202     Br3203   1.936       .  S
C3207      C3208   1.409       .  A
C3207      C3212   1.405       .  A
C3207     Br3214   1.932       .  S
C3208      C3209   1.412       .  A
C3209      C3210   1.408       .  A
C3209     Br3216   1.931       .  S
C3210      C3211   1.411       .  A
C3210     Br3215   1.932       .  S
C3211      C3212   1.412       .  A
C3212     Br3213   1.933       .  S
C3217      C3218   1.408   1_554  A
C3217      C3222   1.408       .  A
C3217     Br3224   1.936       .  S
C3218      C3219   1.409       .  A
C3219      C3220   1.411       .  A
C3219     Br3226   1.934       .  S
C3220      C3221   1.422   1_556  A
C3220     Br3225   1.932       .  S
C3221      C3222   1.422       .  A
C3222     Br3223   1.936       .  S
C3227      C3228   1.423       .  A
C3227      C3232   1.422       .  A
C3227     Br3234   1.930       .  S
C3228      C3229   1.422   1_554  A
C3229      C3230   1.408       .  A
C3229     Br3236   1.939       .  S
C3230      C3231   1.408   1_556  A
C3230     Br3235   1.926       .  S
C3231      C3232   1.413       .  A
C3232     Br3233   1.928       .  S
C3237      C3238   1.404       .  A
C3237      C3242   1.412       .  A
C3237     Br3244   1.932       .  S
C3238      C3239   1.414       .  A
C3239      C3240   1.408       .  A
C3239     Br3246   1.931       .  S
C3240      C3241   1.413       .  A
C3240     Br3245   1.934       .  S
C3241      C3242   1.424       .  A
C3242     Br3243   1.929       .  S
C3247      C3248   1.408       .  A
C3247      C3252   1.404       .  A
C3247     Br3254   1.928       .  S
C3248      C3249   1.409       .  A
C3249      C3250   1.405       .  A
C3249     Br3256   1.931       .  S
C3250      C3251   1.408       .  A
C3250     Br3255   1.931       .  S
C3251      C3252   1.408       .  A
C3252     Br3253   1.931       .  S
C3257      C3258   1.410       .  A
C3257      C3262   1.406       .  A
C3257     Br3264   1.929       .  S
C3258      C3259   1.411       .  A
C3259      C3260   1.412       .  A
C3259     Br3266   1.929       .  S
C3260      C3261   1.410       .  A
C3260     Br3265   1.927       .  S
C3261      C3262   1.409       .  A
C3262     Br3263   1.928       .  S
C3267      C3268   1.407       .  A
C3267      C3272   1.409       .  A
C3267     Br3274   1.932       .  S
C3268      C3269   1.410       .  A
C3269      C3270   1.413       .  A
C3269     Br3276   1.924       .  S
C3270      C3271   1.418       .  A
C3270     Br3275   1.934       .  S
C3271      C3272   1.418       .  A
C3272     Br3273   1.931       .  S
C3277      C3278   1.421       .  A
C3277      C3282   1.419       .  A
C3277     Br3284   1.931       .  S
C3278      C3279   1.420       .  A
C3279      C3280   1.409       .  A
C3279     Br3286   1.934       .  S
C3280      C3281   1.408       .  A
C3280     Br3285   1.925       .  S
C3281      C3282   1.415       .  A
C3282     Br3283   1.930       .  S
C3287      C3288   1.408       .  A
C3287      C3292   1.403   1_455  A
C3287     Br3294   1.932       .  S
C3288      C3289   1.408   1_455  A
C3289      C3290   1.406       .  A
C3289     Br3296   1.932       .  S
C3290      C3291   1.414       .  A
C3290     Br3295   1.932       .  S
C3291      C3292   1.411       .  A
C3292     Br3293   1.931   1_655  S
C3297      C3298   1.423       .  A
C3297      C3302   1.419       .  A
C3297     Br3304   1.930       .  S
C3298      C3299   1.419       .  A
C3299      C3300   1.413       .  A
C3299     Br3306   1.934       .  S
C3300      C3301   1.415       .  A
C3300     Br3305   1.933       .  S
C3301      C3302   1.412       .  A
C3302     Br3303   1.931       .  S
C3307      C3308   1.411       .  A
C3307      C3312   1.412       .  A
C3307     Br3314   1.928       .  S
C3308      C3309   1.416       .  A
C3309      C3310   1.421       .  A
C3309     Br3316   1.929       .  S
C3310      C3311   1.420       .  A
C3310     Br3315   1.930       .  S
C3311      C3312   1.422       .  A
C3312     Br3313   1.936       .  S
C3317      C3318   1.409       .  A
C3317      C3322   1.405       .  A
C3317     Br3324   1.927       .  S
C3318      C3319   1.408       .  A
C3319      C3320   1.416       .  A
C3319     Br3326   1.922       .  S
C3320      C3321   1.414       .  A
C3320     Br3325   1.927       .  S
C3321      C3322   1.406       .  A
C3322     Br3323   1.923       .  S
C3327      C3328   1.421       .  A
C3327      C3332   1.413   1_655  A
C3327     Br3334   1.931   1_655  S
C3328      C3329   1.405       .  A
C3329      C3330   1.411       .  A
C3329     Br3336   1.932       .  S
C3330      C3331   1.421   1_655  A
C3330     Br3335   1.929       .  S
C3331      C3332   1.408       .  A
C3332     Br3333   1.931       .  S
C3337      C3338   1.408       .  A
C3337      C3342   1.405   1_656  A
C3337     Br3344   1.931   1_655  S
C3338      C3339   1.411   1_556  A
C3339      C3340   1.403       .  A
C3339     Br3346   1.934       .  S
C3340      C3341   1.410   1_655  A
C3340     Br3345   1.933       .  S
C3341      C3342   1.411       .  A
C3342     Br3343   1.932       .  S
C3347      C3348   1.411       .  A
C3347      C3352   1.404       .  A
C3347     Br3354   1.924       .  S
C3348      C3349   1.413       .  A
C3349      C3350   1.412       .  A
C3349     Br3356   1.925       .  S
C3350      C3351   1.407       .  A
C3350     Br3355   1.928       .  S
C3351      C3352   1.405       .  A
C3352     Br3353   1.926       .  S
C3357      C3358   1.416       .  A
C3357      C3362   1.416       .  A
C3357     Br3364   1.928       .  S
C3358      C3359   1.417       .  A
C3359      C3360   1.420       .  A
C3359     Br3366   1.933       .  S
C3360      C3361   1.420       .  A
C3360     Br3365   1.931       .  S
C3361      C3362   1.415       .  A
C3362     Br3363   1.931       .  S
C3367      C3368   1.414       .  A
C3367      C3372   1.409       .  A
C3367     Br3374   1.934       .  S
C3368      C3369   1.411       .  A
C3369      C3370   1.415       .  A
C3369     Br3376   1.926       .  S
C3370      C3371   1.415       .  A
C3370     Br3375   1.930       .  S
C3371      C3372   1.413       .  A
C3372     Br3373   1.930       .  S
C3377      C3378   1.410       .  A
C3377      C3382   1.408       .  A
C3377     Br3384   1.927       .  S
C3378      C3379   1.408       .  A
C3379      C3380   1.401       .  A
C3379     Br3386   1.933       .  S
C3380      C3381   1.408       .  A
C3380     Br3385   1.932       .  S
C3381      C3382   1.409       .  A
C3382     Br3383   1.930       .  S
C3387      C3388   1.408       .  A
C3387      C3392   1.412       .  A
C3387     Br3394   1.921       .  S
C3388      C3389   1.413       .  A
C3389      C3390   1.413       .  A
C3389     Br3396   1.921       .  S
C3390      C3391   1.406       .  A
C3390     Br3395   1.925       .  S
C3391      C3392   1.411       .  A
C3392     Br3393   1.928       .  S
C3397      C3398   1.412       .  A
C3397      C3402   1.408       .  A
C3397     Br3404   1.929       .  S
C3398      C3399   1.410       .  A
C3399      C3400   1.404       .  A
C3399     Br3406   1.928       .  S
C3400      C3401   1.408       .  A
C3400     Br3405   1.932       .  S
C3401      C3402   1.406       .  A
C3402     Br3403   1.928       .  S
C3407      C3408   1.410       .  A
C3407      C3412   1.413       .  A
C3407     Br3414   1.933       .  S
C3408      C3409   1.417       .  A
C3409      C3410   1.410       .  A
C3409     Br3416   1.934       .  S
C3410      C3411   1.414       .  A
C3410     Br3415   1.936       .  S
C3411      C3412   1.421       .  A
C3412     Br3413   1.929       .  S
C3417      C3418   1.416       .  A
C3417      C3422   1.407       .  A
C3417     Br3424   1.934       .  S
C3418      C3419   1.415       .  A
C3419      C3420   1.418       .  A
C3419     Br3426   1.926       .  S
C3420      C3421   1.415       .  A
C3420     Br3425   1.929       .  S
C3421      C3422   1.410       .  A
C3422     Br3423   1.931       .  S
C3427      C3428   1.421       .  A
C3427      C3432   1.411       .  A
C3427     Br3434   1.932       .  S
C3428      C3429   1.408       .  A
C3429      C3430   1.408       .  A
C3429     Br3436   1.932       .  S
C3430      C3431   1.416       .  A
C3430     Br3435   1.932       .  S
C3431      C3432   1.408       .  A
C3432     Br3433   1.933       .  S
C3437      C3438   1.407       .  A
C3437      C3442   1.412   1_655  A
C3437     Br3444   1.927       .  S
C3438      C3439   1.409       .  A
C3439      C3440   1.406   1_655  A
C3439     Br3446   1.928       .  S
C3440      C3441   1.405       .  A
C3440     Br3445   1.924       .  S
C3441      C3442   1.414       .  A
C3442     Br3443   1.928       .  S
C3447      C3448   1.411       .  A
C3447      C3452   1.404       .  A
C3447     Br3454   1.931       .  S
C3448      C3449   1.409       .  A
C3449      C3450   1.404       .  A
C3449     Br3456   1.928       .  S
C3450      C3451   1.407       .  A
C3450     Br3455   1.931       .  S
C3451      C3452   1.407       .  A
C3452     Br3453   1.932       .  S
