geometry optimzed in LAMMPS
_audit_creation_date              2020-12-01 
_audit_creation_method            'lammps2cif' 
_symmetry_space_group_name_H-M    'P1' 
_symmetry_Int_Tables_number       1 
_symmetry_cell_setting            triclinic 
loop_ 
_symmetry_equiv_pos_as_xyz 
  x,y,z 
_cell_length_a                    31.92003906 
_cell_length_b                    31.94180520868948 
_cell_length_c                    44.185475974716596 
_cell_angle_alpha                 89.77933157573928 
_cell_angle_beta                  90.25877382874286 
_cell_angle_gamma                 120.097656038597 
loop_ 
_atom_site_label 
_atom_site_type_symbol 
_atom_site_fract_x 
_atom_site_fract_y 
_atom_site_fract_z 
_atom_site_charge 
O1          O  0.21656314  0.70236920  0.33581908    -0.85500
O2          O  0.22218430  0.76609879  0.29240797    -0.82600
C3          C  0.21111961  0.79305265  0.27773798     0.97900
O4          O  0.19620230  0.81776475  0.29155577    -0.82600
O5          O  0.10314633  0.74590437  0.30114230    -0.85200
C6          C  0.06744359  0.70919202  0.31240265     1.02500
O7          O  0.07102872  0.69254424  0.33780718    -0.78000
O8          O  0.13766179  0.66334700  0.33334639    -0.78200
C9          C  0.17726735  0.66550239  0.32777201     1.02400
O10         O  0.24403367  0.77809875  0.38051547    -0.85500
O11         O  0.26013259  0.84387262  0.33632328    -0.82600
C12         C  0.24394068  0.86903752  0.34811057     0.98000
O13         O  0.19904536  0.85151247  0.35195659    -0.82600
O14         O  0.10047691  0.78258350  0.35891723    -0.85200
C15         C  0.09387447  0.76327370  0.38485696     1.02400
O16         O  0.11748397  0.74318487  0.39276377    -0.78000
O17         O  0.18026397  0.70831293  0.39150276    -0.78200
C18         C  0.21955207  0.74549434  0.39955167     1.02400
Cr19       Cr  0.23138401  0.77154436  0.33668067     1.93700
Cr20       Cr  0.15154010  0.79695072  0.32722666     1.93200
Cr21       Cr  0.12987687  0.70548428  0.36240921     1.39100
O22         O  0.17084335  0.75800208  0.34223960    -1.23300
O23         O  0.70933979  0.49696847  0.25300343    -0.85500
O24         O  0.77199340  0.55443709  0.20904301    -0.82600
C25         C  0.79858653  0.59240735  0.19425085     0.97900
O26         O  0.82462845  0.63176663  0.20810277    -0.82600
O27         O  0.75155276  0.65128968  0.21604721    -0.85200
C28         C  0.71422373  0.64943612  0.22683677     1.02500
O29         O  0.69867134  0.63134323  0.25283333    -0.78000
O30         O  0.66953464  0.53597112  0.25105256    -0.78200
C31         C  0.67198706  0.49876228  0.24544778     1.02400
O32         O  0.78527256  0.54656161  0.29727325    -0.85500
O33         O  0.85051562  0.59613619  0.25316514    -0.82600
C34         C  0.87510622  0.63739848  0.26539320     0.98000
O35         O  0.85742845  0.66476486  0.26840223    -0.82600
O36         O  0.78808499  0.69432849  0.27287338    -0.85200
C37         C  0.76939119  0.68295909  0.29891514     1.02400
O38         O  0.75119051  0.64001600  0.30806561    -0.78000
O39         O  0.71645042  0.54209251  0.30895939    -0.78200
C40         C  0.75325465  0.53900259  0.31651847     1.02400
Cr41       Cr  0.77826061  0.55176417  0.25344264     1.93700
Cr42       Cr  0.80310241  0.65638216  0.24275700     1.93200
Cr43       Cr  0.71259881  0.58773171  0.27887040     1.39100
O44         O  0.76455011  0.59860092  0.25853639    -1.23300
O45         O  0.50411951  0.79707967  0.16876242    -0.85500
O46         O  0.56194710  0.79247294  0.12466456    -0.82600
C47         C  0.60007704  0.80388643  0.11005374     0.97900
O48         O  0.63940047  0.81730674  0.12413352    -0.82600
O49         O  0.66110199  0.91000269  0.13454152    -0.85200
C50         C  0.66018207  0.94542358  0.14611822     1.02500
O51         O  0.64067267  0.94161283  0.17169964    -0.78000
O52         O  0.54441103  0.87596128  0.16679396    -0.78200
C53         C  0.50664500  0.83649697  0.16113863     1.02400
O54         O  0.55172948  0.76814381  0.21283495    -0.85500
O55         O  0.60105818  0.75278226  0.16816217    -0.82600
C56         C  0.64230095  0.76846052  0.18025348     0.98000
O57         O  0.67007133  0.81313434  0.18453277    -0.82600
O58         O  0.70088264  0.91131440  0.19215098    -0.85200
C59         C  0.68833622  0.91703394  0.21823591     1.02400
O60         O  0.64459166  0.89330227  0.22598689    -0.78000
O61         O  0.54639406  0.83199008  0.22427106    -0.78200
C62         C  0.54307269  0.79206344  0.23190687     1.02400
Cr63       Cr  0.55800539  0.78184101  0.16899852     1.93700
Cr64       Cr  0.66359741  0.86113685  0.16014610     1.93200
Cr65       Cr  0.59445231  0.88257708  0.19574262     1.39100
O66         O  0.60541690  0.84193388  0.17509063    -1.23300
O67         O  0.49768625  0.70148915  0.42252759    -0.85500
O68         O  0.55806620  0.76583055  0.46520362    -0.82600
C69         C  0.59679694  0.79319765  0.47922264     0.97900
O70         O  0.63615376  0.81681315  0.46480901    -0.82600
O71         O  0.65617021  0.74468377  0.45368177    -0.85200
C72         C  0.65406382  0.70760165  0.44232033     1.02500
O73         O  0.63293516  0.69111356  0.41717388    -0.78000
O74         O  0.53736621  0.66233412  0.42404801    -0.78200
C75         C  0.50018495  0.66460150  0.43030481     1.02400
O76         O  0.54447561  0.77680835  0.37719275    -0.85500
O77         O  0.59592934  0.84277422  0.42103676    -0.82600
C78         C  0.63700006  0.86817408  0.40884528     0.98000
O79         O  0.66400992  0.85061318  0.40397212    -0.82600
O80         O  0.69264565  0.78173648  0.39533051    -0.85200
C81         C  0.67881744  0.76221536  0.36957045     1.02400
O82         O  0.63461486  0.74133832  0.36258265    -0.78000
O83         O  0.53687009  0.70653661  0.36628063    -0.78200
C84         C  0.53546949  0.74400538  0.35820589     1.02400
Cr85       Cr  0.55223232  0.77057569  0.42095803     1.93700
Cr86       Cr  0.65782111  0.79587885  0.42818440     1.93200
Cr87       Cr  0.58595020  0.70407993  0.39400455     1.39100
O88         O  0.59878709  0.75687235  0.41427358    -1.23300
O89         O  0.30459918  0.50718037  0.50226339    -0.85500
O90         O  0.24216040  0.44827726  0.45808225    -0.82600
C91         C  0.21547749  0.40989517  0.44360035     0.97900
O92         O  0.18974919  0.37078213  0.45782366    -0.82600
O93         O  0.26201118  0.35034718  0.46794696    -0.85200
C94         C  0.29928118  0.35246662  0.47930344     1.02500
O95         O  0.31538425  0.37236435  0.50480633    -0.78000
O96         O  0.34454162  0.46836236  0.50048174    -0.78200
C97         C  0.34206509  0.50572522  0.49492088     1.02400
O98         O  0.22863317  0.45845576  0.04613382    -0.85500
O99         O  0.16378032  0.40846987  0.00166176    -0.82600
C100        C  0.13890439  0.36766253  0.01431820     0.98000
O101        O  0.15607491  0.34005776  0.01833240    -0.82600
O102        O  0.22476064  0.31056499  0.02531719    -0.85200
C103        C  0.24374640  0.32292172  0.05128544     1.02400
O104        O  0.26354845  0.36648485  0.05939389    -0.78000
O105        O  0.29818087  0.46439181  0.05798133    -0.78200
C106        C  0.26113673  0.46695800  0.06541670     1.02400
Cr107      Cr  0.23583589  0.45233048  0.50240294     1.93700
Cr108      Cr  0.21059088  0.34724226  0.49367739     1.93200
Cr109      Cr  0.30175107  0.41743058  0.02920676     1.39100
O110        O  0.24946239  0.40559827  0.50858788    -1.23300
O111        O  0.79714926  0.30023815  0.08393413    -0.85500
O112        O  0.79340676  0.23805525  0.04032094    -0.82600
C113        C  0.80464903  0.21131003  0.02578402     0.97900
O114        O  0.81939512  0.18666062  0.03989083    -0.82600
O115        O  0.91183815  0.26187166  0.04837331    -0.85200
C116        C  0.94735220  0.29871626  0.05981815     1.02500
O117        O  0.94393766  0.31384125  0.08572693    -0.78000
O118        O  0.87616076  0.34131442  0.08285094    -0.78200
C119        C  0.83613080  0.33796506  0.07662256     1.02400
O120        O  0.77143855  0.22433728  0.12836320    -0.85500
O121        O  0.75781772  0.15986239  0.08468191    -0.82600
C122        C  0.77560784  0.13648263  0.09728199     0.98000
O123        O  0.82080156  0.15496945  0.10015741    -0.82600
O124        O  0.91829965  0.22504443  0.10524714    -0.85200
C125        C  0.92439261  0.24253693  0.13154130     1.02400
O126        O  0.89942478  0.26054836  0.14039130    -0.78000
O127        O  0.83494630  0.29369177  0.14051505    -0.78200
C128        C  0.79548474  0.25619454  0.14785066     1.02400
Cr129      Cr  0.78422782  0.23178834  0.08465951     1.93700
Cr130      Cr  0.86571434  0.20947780  0.07468856     1.93200
Cr131      Cr  0.88542102  0.29879853  0.11097981     1.39100
O132        O  0.84517570  0.24680039  0.09028779    -1.23300
O133        O  0.51469911  0.21292006  0.41857987    -0.85500
O134        O  0.45610481  0.21785092  0.37500526    -0.82600
C135        C  0.41818482  0.20709217  0.36025932     0.97900
O136        O  0.37816217  0.19069093  0.37393044    -0.82600
O137        O  0.35896562  0.09775591  0.38231352    -0.85200
C138        C  0.36116647  0.06241414  0.39318732     1.02500
O139        O  0.38075906  0.06577838  0.41883622    -0.78000
O140        O  0.47611732  0.13417486  0.41513713    -0.78200
C141        C  0.51302362  0.17447102  0.40977003     1.02400
O142        O  0.46407063  0.23704797  0.46305328    -0.85500
O143        O  0.41396837  0.25256219  0.41928343    -0.82600
C144        C  0.37271053  0.23498969  0.43154403     0.98000
O145        O  0.34592567  0.18986099  0.43458208    -0.82600
O146        O  0.31797728  0.09210793  0.44005403    -0.85200
C147        C  0.33044918  0.08581577  0.46614476     1.02400
O148        O  0.37410890  0.10963527  0.47423941    -0.78000
O149        O  0.47155257  0.17415849  0.47396873    -0.78200
C150        C  0.47295765  0.21302682  0.48201188     1.02400
Cr151      Cr  0.45900649  0.22571238  0.41930049     1.93700
Cr152      Cr  0.35453495  0.14445334  0.40900240     1.93200
Cr153      Cr  0.42523287  0.12410663  0.44416545     1.39100
O154        O  0.41284482  0.16463347  0.42427913    -1.23300
O155        O  0.70752236  0.21097883  0.33753397    -0.85500
O156        O  0.77218143  0.21771871  0.38063480    -0.82600
C157        C  0.79903420  0.20656393  0.39535145     0.97900
O158        O  0.82341961  0.19129071  0.38163375    -0.82600
O159        O  0.74950615  0.09773258  0.37577731    -0.85200
C160        C  0.71141615  0.06196333  0.36571995     1.02500
O161        O  0.69400905  0.06412337  0.34023589    -0.78000
O162        O  0.66582974  0.13204233  0.34083128    -0.78200
C163        C  0.66949177  0.17264566  0.34523808     1.02400
O164        O  0.78031533  0.23288825  0.29206197    -0.85500
O165        O  0.84775726  0.25062742  0.33517750    -0.82600
C166        C  0.87111209  0.23277559  0.32293630     0.98000
O167        O  0.85279501  0.18750837  0.32099992    -0.82600
O168        O  0.78337581  0.08923581  0.31853268    -0.85200
C169        C  0.76420090  0.08137141  0.29258672     1.02400
O170        O  0.74349513  0.10400249  0.28383329    -0.78000
O171        O  0.71048318  0.16825997  0.28198778    -0.78200
C172        C  0.74729579  0.20739319  0.27346405     1.02400
Cr173      Cr  0.77576011  0.22356565  0.33611609     1.93700
Cr174      Cr  0.79967774  0.14326904  0.34790306     1.93200
Cr175      Cr  0.70725582  0.12042347  0.31315565     1.39100
O176        O  0.76062878  0.16223291  0.33233781    -1.23300
O177        O  0.30959324  0.79638555  0.08943301    -0.85500
O178        O  0.24564739  0.79022191  0.13262234    -0.82600
C179        C  0.21860904  0.80122235  0.14706493     0.97900
O180        O  0.19383855  0.81579951  0.13288520    -0.82600
O181        O  0.26751164  0.90927276  0.12518618    -0.85200
C182        C  0.30475259  0.94511826  0.11439389     1.02500
O183        O  0.32093630  0.94224409  0.08871724    -0.78000
O184        O  0.34990233  0.87532928  0.09146666    -0.78200
C185        C  0.34700719  0.83536267  0.09715140     1.02400
O186        O  0.23494199  0.77079950  0.04424997    -0.85500
O187        O  0.16843092  0.75436189  0.08748738    -0.82600
C188        C  0.14409220  0.77153597  0.07542427     0.98000
O189        O  0.16208696  0.81666806  0.07249872    -0.82600
O190        O  0.23139081  0.91501313  0.06765694    -0.85200
C191        C  0.24968435  0.92162767  0.04154135     1.02400
O192        O  0.26954299  0.89812538  0.03322023    -0.78000
O193        O  0.30422712  0.83515672  0.03304524    -0.78200
C194        C  0.26742328  0.79541370  0.02521136     1.02400
Cr195      Cr  0.24076086  0.78231932  0.08812503     1.93700
Cr196      Cr  0.21627143  0.86240734  0.09825869     1.93200
Cr197      Cr  0.30746730  0.88443498  0.06303779     1.39100
O198        O  0.25494957  0.84313216  0.08300635    -1.23300
O199        O  0.21554056  0.50874668  0.25525434    -0.85500
O200        O  0.21976732  0.44902104  0.29836905    -0.82600
C201        C  0.20834899  0.41062786  0.31273112     0.97900
O202        O  0.19245291  0.37105587  0.29858643    -0.82600
O203        O  0.09943615  0.35114970  0.28845495    -0.85200
C204        C  0.06415185  0.35273221  0.27681887     1.02500
O205        O  0.06871487  0.37411093  0.25174448    -0.78000
O206        O  0.13655919  0.47013767  0.25725964    -0.78200
C207        C  0.17665734  0.50724751  0.26295110     1.02400
O208        O  0.24168369  0.46023846  0.21036309    -0.85500
O209        O  0.25654734  0.40908857  0.25399825    -0.82600
C210        C  0.23978750  0.36853883  0.24093486     0.98000
O211        O  0.19476855  0.34166848  0.23738450    -0.82600
O212        O  0.09753388  0.31320859  0.23059465    -0.85200
C213        C  0.09162679  0.32645080  0.20471174     1.02400
O214        O  0.11543652  0.37033544  0.19715860    -0.78000
O215        O  0.17897639  0.46801215  0.19939596    -0.78200
C216        C  0.21786025  0.46947621  0.19141791     1.02400
Cr217      Cr  0.22902586  0.45359524  0.25410807     1.93700
Cr218      Cr  0.14801416  0.34868826  0.26256904     1.93200
Cr219      Cr  0.12808030  0.42016199  0.22787744     1.39100
O220        O  0.16818428  0.40746012  0.24818112    -1.23300
O221        O  0.79968524  0.49779124  0.00647966    -0.85500
O222        O  0.79452289  0.55681901  0.04936285    -0.82600
C223        C  0.80517842  0.59498285  0.06362703     0.97900
O224        O  0.82082324  0.63457399  0.04942234    -0.82600
O225        O  0.91462052  0.65557569  0.04078191    -0.85200
C226        C  0.94999925  0.65362925  0.02981428     1.02500
O227        O  0.94597326  0.63285221  0.00463288    -0.78000
O228        O  0.87866856  0.53670856  0.00883325    -0.78200
C229        C  0.83870342  0.49919561  0.01392144     1.02400
O230        O  0.77362360  0.54628262  0.46131024    -0.85500
O231        O  0.75780746  0.59666712  0.50435578    -0.82600
C232        C  0.77457432  0.63733636  0.49133760     0.98000
O233        O  0.81963597  0.66455794  0.98812917    -0.82600
O234        O  0.91812437  0.69424459  0.48272573    -0.85200
C235        C  0.92476374  0.68139183  0.45697904     1.02400
O236        O  0.90052891  0.63774537  0.44916618    -0.78000
O237        O  0.83723139  0.54004753  0.45068128    -0.78200
C238        C  0.79786749  0.53766517  0.44257493     1.02400
Cr239      Cr  0.78586665  0.55267476  0.00505841     1.93700
Cr240      Cr  0.86633847  0.65786555  0.01403700     1.93200
Cr241      Cr  0.88740744  0.58733822  0.47978289     1.39100
O242        O  0.84672399  0.59927420  0.99964261    -1.23300
O243        O  0.51704173  0.30506646  0.17070617    -0.85500
O244        O  0.46017288  0.24215945  0.21503950    -0.82600
C245        C  0.42204481  0.21602397  0.22982482     0.97900
O246        O  0.38232590  0.19027545  0.21611576    -0.82600
O247        O  0.35967062  0.26099487  0.20614553    -0.85200
C248        C  0.36059732  0.29755308  0.19463245     1.02500
O249        O  0.38098710  0.31429730  0.16939789    -0.78000
O250        O  0.47718007  0.34380265  0.17406167    -0.78200
C251        C  0.51483240  0.34164645  0.17924850     1.02400
O252        O  0.46752740  0.22890954  0.12673477    -0.85500
O253        O  0.41962299  0.16364273  0.17162016    -0.82600
C254        C  0.37818128  0.13805582  0.15978021     0.98000
O255        O  0.35030760  0.15501001  0.15603017    -0.82600
O256        O  0.31982570  0.22296038  0.14874784    -0.85200
C257        C  0.33204511  0.24231311  0.12285239     1.02400
O258        O  0.37578239  0.26337110  0.11490773    -0.78000
O259        O  0.47373761  0.29882422  0.11600004    -0.78200
C260        C  0.47534468  0.26160651  0.10777837     1.02400
Cr261      Cr  0.46278427  0.23594238  0.17065717     1.93700
Cr262      Cr  0.35737431  0.20983021  0.18043820     1.93200
Cr263      Cr  0.42658849  0.30146293  0.14505303     1.39100
O264        O  0.41541669  0.24906854  0.16526424    -1.23300
C265        C  0.34975192  0.36671336  0.21026361    -0.21500
C266        C  0.33218679  0.31677566  0.20879238    -0.09500
C267        C  0.28475116  0.28435723  0.21838988     0.29300
C268        C  0.25524834  0.30165249  0.22896824    -0.21500
C269        C  0.27259912  0.35153486  0.23065202    -0.09500
C270        C  0.32044040  0.38414730  0.22154652     0.29300
F271        F  0.33814869  0.43263892  0.22238387    -0.20100
H272        H  0.38599737  0.39210445  0.20249400     0.17700
H273        H  0.21851619  0.27584726  0.23570703     0.17700
F274        F  0.26595498  0.23580213  0.21594904    -0.20000
C275        C  0.05883683  0.75268101  0.07053177    -0.21500
C276        C  0.09362961  0.73887781  0.06584951    -0.09500
C277        C  0.07994312  0.69474895  0.05129283     0.29300
C278        C  0.03259001  0.66611879  0.04042499    -0.21500
C279        C  0.99790266  0.68032522  0.04470353    -0.09500
C280        C  0.01129471  0.72355351  0.06044514     0.29300
F281        F  0.97929094  0.73923711  0.06457677    -0.20100
H282        H  0.06864402  0.78643550  0.08185579     0.17700
H283        H  0.02321297  0.63322014  0.02817429     0.17700
F284        F  0.11288119  0.68055820  0.04621325    -0.20000
C285        C  0.31382323  0.05160288  0.15707567    -0.21500
C286        C  0.36166306  0.08758129  0.15114825    -0.09500
C287        C  0.39254074  0.07511705  0.13601929     0.29300
C288        C  0.37453614  0.02799480  0.12511044    -0.21500
C289        C  0.32604971  0.99230575  0.13008169    -0.09500
C290        C  0.29627372  0.00422273  0.14714639     0.29300
F291        F  0.24921134  0.97097193  0.15257899    -0.20100
H292        H  0.28972951  0.06041034  0.16909128     0.17700
H293        H  0.39813406  0.01968579  0.11210648     0.17700
F294        F  0.43921332  0.10910022  0.13022996    -0.20000
C295        C  0.95495145  0.24968178  0.31420855    -0.21500
C296        C  0.92083878  0.26494296  0.31209277    -0.09500
C297        C  0.93465296  0.31050342  0.29932117     0.29300
C298        C  0.98173599  0.33970141  0.28832479    -0.21500
C299        C  0.01593176  0.32448312  0.29072942    -0.09500
C300        C  0.00214332  0.27921647  0.30393327     0.29300
F301        F  0.03353666  0.26228564  0.30546728    -0.20100
H302        H  0.94503252  0.21469914  0.32388399     0.17700
H303        H  0.99143277  0.37404826  0.27776479     0.17700
F304        F  0.90220263  0.32593448  0.29640476    -0.20000
C305        C  0.63847779  0.21519144  0.37791207    -0.21500
C306        C  0.62918063  0.17516578  0.35991375    -0.09500
C307        C  0.58144649  0.13626201  0.35769195     0.29300
C308        C  0.54428756  0.13669462  0.37396015    -0.21500
C309        C  0.55362320  0.17593994  0.39269818    -0.09500
C310        C  0.60108477  0.21569130  0.39419093     0.29300
F311        F  0.61172734  0.25421823  0.41210625    -0.20100
H312        H  0.67499410  0.24545531  0.38012686     0.17700
H313        H  0.50791746  0.10615506  0.37175230     0.17700
F314        F  0.57049521  0.09785835  0.33956705    -0.20000
C315        C  0.25049384  0.95751645  0.99124836    -0.21500
C316        C  0.25574137  0.96250580  0.02275459    -0.09500
C317        C  0.27732214  0.00911195  0.03553322     0.29300
C318        C  0.29818758  0.05004033  0.01685173    -0.21500
C319        C  0.29619975  0.04506710  0.48527572    -0.09500
C320        C  0.26971276  0.99845873  0.47258521     0.29300
F321        F  0.26749925  0.99225645  0.44212362    -0.20100
H322        H  0.23436457  0.92196268  0.98103168     0.17700
H323        H  0.31876087  0.08554882  0.02702699     0.17700
F324        F  0.28350617  0.01524969  0.06594380    -0.20000
C325        C  0.48007843  0.27118621  0.02217170    -0.21500
C326        C  0.48285248  0.23006334  0.01393456    -0.09500
C327        C  0.48960351  0.20336302  0.03691445     0.29300
C328        C  0.49020113  0.21575643  0.06735819    -0.21500
C329        C  0.48416182  0.25495839  0.07561564    -0.09500
C330        C  0.48062279  0.28353636  0.05253832     0.29300
F331        F  0.47443513  0.32156130  0.05915400    -0.20100
H332        H  0.47500433  0.29271429  0.00512146     0.17700
H333        H  0.49332137  0.19322928  0.08456674     0.17700
F334        F  0.49328187  0.16390717  0.03021558    -0.20000
C335        C  0.46363038  0.22637851  0.31141675    -0.21500
C336        C  0.42029522  0.21300737  0.32699165    -0.09500
C337        C  0.37852542  0.20242536  0.31024409     0.29300
C338        C  0.37979925  0.20339778  0.27874899    -0.21500
C339        C  0.42265257  0.21549022  0.26317895    -0.09500
C340        C  0.46498376  0.22794957  0.27977285     0.29300
F341        F  0.50719696  0.24016598  0.26552215    -0.20100
H342        H  0.49634138  0.23471326  0.32368908     0.17700
H343        H  0.34702665  0.19488500  0.26647601     0.17700
F344        F  0.33613399  0.19061276  0.32412241    -0.20000
C345        C  0.87965600  0.41792937  0.05047892    -0.21500
C346        C  0.83565235  0.37861874  0.06050709    -0.09500
C347        C  0.79231105  0.37835550  0.05388777     0.29300
C348        C  0.79344267  0.41719921  0.03829057    -0.21500
C349        C  0.83762782  0.45690093  0.02880449    -0.09500
C350        C  0.88079553  0.45646406  0.03478939     0.29300
F351        F  0.92438448  0.49319297  0.02553062    -0.20100
H352        H  0.91360496  0.41894525  0.05465599     0.17700
H353        H  0.75964283  0.41639596  0.53395837     0.17700
F354        F  0.74882409  0.34084504  0.06253507    -0.20000
C355        C  0.05452179  0.29643104  0.15400928    -0.21500
C356        C  0.05075085  0.29263534  0.18558723    -0.09500
C357        C  0.00482636  0.26394490  0.19883683     0.29300
C358        C  0.96308807  0.24409164  0.18088198    -0.21500
C359        C  0.96674254  0.25072306  0.14947741    -0.09500
C360        C  0.01289443  0.27478916  0.13597642     0.29300
F361        F  0.01766786  0.28218428  0.10561801    -0.20100
H362        H  0.08946251  0.31865613  0.14343372     0.17700
H363        H  0.92787782  0.22600566  0.19162902     0.17700
F364        F  0.99981775  0.25977440  0.22936336    -0.20000
C365        C  0.73708389  0.20363527  0.18778509    -0.21500
C366        C  0.77809449  0.24794233  0.17968021    -0.09500
C367        C  0.80476299  0.28101287  0.20276698     0.29300
C368        C  0.79242034  0.26858710  0.23311261    -0.21500
C369        C  0.75342140  0.22300401  0.24128839    -0.09500
C370        C  0.72483637  0.19111933  0.21816383     0.29300
F371        F  0.68696069  0.14662055  0.22475669    -0.20100
H372        H  0.71563762  0.17730516  0.17060603     0.17700
H373        H  0.81499128  0.29412753  0.25035081     0.17700
F374        F  0.84424921  0.32443001  0.19627079    -0.20000
C375        C  0.78854537  0.23904172  0.47630073    -0.21500
C376        C  0.80136176  0.20901294  0.49240854    -0.09500
C377        C  0.81381902  0.17896917  0.47617842     0.29300
C378        C  0.81395555  0.17954913  0.44470042    -0.21500
C379        C  0.80120277  0.20947156  0.42861269    -0.09500
C380        C  0.78818200  0.23915436  0.44464979     0.29300
F381        F  0.77595708  0.26882534  0.42983642    -0.20100
H382        H  0.77924533  0.26285081  0.48818236     0.17700
H383        H  0.82325181  0.15568836  0.43286069     0.17700
F384        F  0.82600915  0.14892051  0.49054766    -0.20000
C385        C  0.26767545  0.26386786  0.11792965    -0.21500
C386        C  0.29706568  0.24822011  0.10405100    -0.09500
C387        C  0.30033617  0.24916621  0.07237642     0.29300
C388        C  0.27729988  0.26849504  0.05509562    -0.21500
C389        C  0.25247133  0.28904787  0.06917647    -0.09500
C390        C  0.24631909  0.28514449  0.10067954     0.29300
F391        F  0.22241592  0.30460233  0.11483763    -0.20100
H392        H  0.26521206  0.26407324  0.14238568     0.17700
H393        H  0.28299077  0.27176574  0.03082912     0.17700
F394        F  0.32882288  0.23488162  0.05834012    -0.20000
C395        C  0.28749552  0.48049805  0.11963805    -0.21500
C396        C  0.25478206  0.47763651  0.09724417    -0.09500
C397        C  0.21332021  0.47938474  0.10625747     0.29300
C398        C  0.20328725  0.48020572  0.13697288    -0.21500
C399        C  0.23411944  0.47922890  0.15939944    -0.09500
C400        C  0.27744900  0.48126879  0.15033310     0.29300
F401        F  0.30912022  0.48147777  0.17102584    -0.20100
H402        H  0.31986860  0.47963243  0.11351588     0.17700
H403        H  0.16986915  0.47892874  0.14315144     0.17700
F404        F  0.18097928  0.47776684  0.08557339    -0.20000
C405        C  0.19292536  0.36736021  0.36208627    -0.21500
C406        C  0.21279943  0.41129894  0.34612819    -0.09500
C407        C  0.23430165  0.45496739  0.36255143     0.29300
C408        C  0.23498416  0.45429202  0.39419770    -0.21500
C409        C  0.21404187  0.41025910  0.41011401    -0.09500
C410        C  0.19344079  0.36666378  0.39364506     0.29300
F411        F  0.17422338  0.32318544  0.40789609    -0.20100
H412        H  0.17621269  0.33316143  0.35013876     0.17700
H413        H  0.25165834  0.48837855  0.40626509     0.17700
F414        F  0.25455273  0.49837543  0.34816773    -0.20000
C415        C  0.00486308  0.28929684  0.02710586    -0.21500
C416        C  0.99479959  0.31969339  0.04478746    -0.09500
C417        C  0.03209858  0.36718356  0.05081939     0.29300
C418        C  0.07878358  0.38332525  0.03980013    -0.21500
C419        C  0.08908714  0.35184809  0.02360586    -0.09500
C420        C  0.05169904  0.30491917  0.01697074     0.29300
F421        F  0.06053167  0.27411809  0.50080163    -0.20100
H422        H  0.97693481  0.25239814  0.52239374     0.17700
H423        H  0.10734600  0.41976179  0.04493200     0.17700
F424        F  0.02371059  0.39753095  0.06780919    -0.20000
C425        C  0.38691455  0.31123465  0.45604729    -0.21500
C426        C  0.35525287  0.26733943  0.44161575    -0.09500
C427        C  0.30645181  0.25391245  0.43770451     0.29300
C428        C  0.28943056  0.28346603  0.44862975    -0.21500
C429        C  0.32040080  0.32626954  0.46432285    -0.09500
C430        C  0.36951377  0.34027269  0.46776647     0.29300
F431        F  0.40043747  0.38163869  0.48259962    -0.20100
H432        H  0.42469804  0.32210191  0.45920745     0.17700
H433        H  0.25135590  0.27171652  0.44592937     0.17700
F434        F  0.27516423  0.21214331  0.42335983    -0.20000
C435        C  0.42225522  0.54328881  0.46902126    -0.21500
C436        C  0.38302005  0.54750688  0.47947167    -0.09500
C437        C  0.38278397  0.59083596  0.47371446     0.29300
C438        C  0.42064804  0.62848172  0.45751271    -0.21500
C439        C  0.45959441  0.62395031  0.44678040    -0.09500
C440        C  0.46007116  0.58084370  0.45295066     0.29300
F441        F  0.49683722  0.57450008  0.44331557    -0.20100
H442        H  0.42355984  0.51046851  0.47296871     0.17700
H443        H  0.41954414  0.66139017  0.45351401     0.17700
F444        F  0.34607242  0.59702415  0.48363914    -0.20000
C445        C  0.64096294  0.98131934  0.37909353    -0.21500
C446        C  0.69051689  0.01525058  0.38178212    -0.09500
C447        C  0.72128384  0.00145026  0.39606954     0.29300
C448        C  0.70331484  0.95361907  0.40523808    -0.21500
C449        C  0.65425004  0.91918598  0.40128941    -0.09500
C450        C  0.62268174  0.93378666  0.38930786     0.29300
F451        F  0.57480822  0.90149166  0.38576887    -0.20100
H452        H  0.61670153  0.99126300  0.36822428     0.17700
H453        H  0.72799566  0.94322058  0.41496782     0.17700
F454        F  0.76943562  0.03314117  0.39912174    -0.20000
C455        C  0.72479295  0.71898448  0.47202157    -0.21500
C456        C  0.68147437  0.68724479  0.45699206    -0.09500
C457        C  0.66764619  0.63809614  0.45448220     0.29300
C458        C  0.69723899  0.62140490  0.46670159    -0.21500
C459        C  0.74150705  0.65382404  0.48063956    -0.09500
C460        C  0.75480888  0.70267758  0.98341765     0.29300
F461        F  0.79688314  0.73473532  0.99723324    -0.20100
H462        H  0.73643886  0.75708600  0.97400147     0.17700
H463        H  0.68643372  0.58355536  0.46438851     0.17700
F464        F  0.62582003  0.60643667  0.44026419    -0.20000
C465        C  0.42198231  0.79254100  0.14055580    -0.21500
C466        C  0.46539998  0.83632358  0.14539086    -0.09500
C467        C  0.46949684  0.87944942  0.13391697     0.29300
C468        C  0.43115452  0.87847233  0.11798816    -0.21500
C469        C  0.38777884  0.83472357  0.11302539    -0.09500
C470        C  0.38350737  0.79161018  0.12463141     0.29300
F471        F  0.34201360  0.74858598  0.12108168    -0.20100
H472        H  0.41769856  0.75879804  0.14910770     0.17700
H473        H  0.43557695  0.91231432  0.10951159     0.17700
F474        F  0.51067106  0.92272770  0.13771179    -0.20000
C475        C  0.71946831  0.95314718  0.26899734    -0.21500
C476        C  0.72225001  0.95787138  0.23739658    -0.09500
C477        C  0.74815062  0.00447839  0.22452730     0.29300
C478        C  0.76550480  0.04548444  0.24288634    -0.21500
C479        C  0.75920711  0.04061551  0.27431382    -0.09500
C480        C  0.73861670  0.99422118  0.28742670     0.29300
F481        F  0.73168540  0.98825598  0.31778896    -0.20100
H482        H  0.69933282  0.91764360  0.27930312     0.17700
H483        H  0.78110698  0.08089513  0.23242703     0.17700
F484        F  0.75137727  0.01046008  0.19402988    -0.20000
C485        C  0.52743298  0.80399597  0.28582092    -0.21500
C486        C  0.53107914  0.77449883  0.26368601    -0.09500
C487        C  0.52843789  0.73091773  0.27297489     0.29300
C488        C  0.52613639  0.71942019  0.30374986    -0.21500
C489        C  0.52650320  0.75093366  0.32599562    -0.09500
C490        C  0.52514056  0.79250162  0.31658736     0.29300
F491        F  0.52417158  0.82357640  0.33706287    -0.20100
H492        H  0.52881488  0.83745546  0.27947987     0.17700
H493        H  0.52686889  0.68703096  0.31016618     0.17700
F494        F  0.53065487  0.70045982  0.25254836    -0.20000
C495        C  0.55474594  0.78030871  0.06084397    -0.21500
C496        C  0.59908288  0.80152088  0.07655129    -0.09500
C497        C  0.64243032  0.82201689  0.05983062     0.29300
C498        C  0.64115278  0.82003602  0.02828788    -0.21500
C499        C  0.59685577  0.79770038  0.01257727    -0.09500
C500        C  0.55349651  0.77825827  0.02920052     0.29300
F501        F  0.50985685  0.75734215  0.01499942    -0.20100
H502        H  0.52087054  0.76498866  0.07305837     0.17700
H503        H  0.67512779  0.83548410  0.01616839     0.17700
F504        F  0.68628480  0.84445211  0.07380109    -0.20000
C505        C  0.67084926  0.02637836  0.13331287    -0.21500
C506        C  0.68682632  0.99282301  0.13119861    -0.09500
C507        C  0.73112921  0.00634401  0.11687634     0.29300
C508        C  0.75941961  0.05304258  0.10560299    -0.21500
C509        C  0.74369915  0.08672510  0.10781237    -0.09500
C510        C  0.69875197  0.07292921  0.12128571     0.29300
F511        F  0.68296357  0.10504669  0.12409797    -0.20100
H512        H  0.63704299  0.01665340  0.14452676     0.17700
H513        H  0.79398114  0.06307200  0.09533008     0.17700
F514        F  0.74848742  0.97532925  0.11529467    -0.20000
C515        C  0.55111994  0.42062300  0.20640909    -0.21500
C516        C  0.55591078  0.38189662  0.19563833    -0.09500
C517        C  0.59895384  0.38138811  0.20205490     0.29300
C518        C  0.63609047  0.41889736  0.21878269    -0.21500
C519        C  0.63122802  0.45764393  0.22945970    -0.09500
C520        C  0.58807608  0.45798350  0.22308959     0.29300
F521        F  0.58124492  0.49434253  0.23292966    -0.20100
H522        H  0.51837872  0.42198367  0.20212630     0.17700
H523        H  0.66898486  0.41783754  0.22306390     0.17700
F524        F  0.60538080  0.34479999  0.19223119    -0.20000
C525        C  0.78374419  0.54983093  0.11279675    -0.21500
C526        C  0.80007414  0.59362862  0.09696583    -0.09500
C527        C  0.81438691  0.63631399  0.11352068     0.29300
C528        C  0.81413210  0.63531802  0.14505573    -0.21500
C529        C  0.79901365  0.59185966  0.16086153    -0.09500
C530        C  0.78285864  0.54878898  0.14444755     0.29300
F531        F  0.76735827  0.50591297  0.15887103    -0.20100
H532        H  0.77236898  0.51639217  0.10071384     0.17700
H533        H  0.82552417  0.66876473  0.15714819     0.17700
F534        F  0.82934731  0.67934113  0.09942223    -0.20000
C535        C  0.72685449  0.52431462  0.37069672    -0.21500
C536        C  0.76011643  0.52874202  0.34842971    -0.09500
C537        C  0.80255739  0.52874991  0.35759319     0.29300
C538        C  0.81291054  0.52813591  0.38829947    -0.21500
C539        C  0.78144695  0.52754216  0.41059468    -0.09500
C540        C  0.73719955  0.52363530  0.40142782     0.29300
F541        F  0.70481402  0.52154973  0.42206413    -0.20100
H542        H  0.69370549  0.52370720  0.36444002     0.17700
H543        H  0.84704332  0.53087649  0.39457327     0.17700
F544        F  0.83562068  0.53209982  0.33707759    -0.20000
C545        C  0.73012630  0.73264121  0.30141645    -0.21500
C546        C  0.75891634  0.71643999  0.31567120    -0.09500
C547        C  0.76761705  0.72365910  0.34686071     0.29300
C548        C  0.74552644  0.74424448  0.36376364    -0.21500
C549        C  0.71272476  0.75585127  0.35003182    -0.09500
C550        C  0.70631604  0.75123512  0.31847662     0.29300
F551        F  0.67459690  0.76153353  0.30445474    -0.20100
H552        H  0.72237333  0.72665482  0.27740788     0.17700
H553        H  0.75050542  0.74676009  0.38809840     0.17700
F554        F  0.79491612  0.70800392  0.36122296    -0.20000
C555        C  0.72347377  0.71658878  0.19430058    -0.21500
C556        C  0.69276555  0.67453334  0.21075431    -0.09500
C557        C  0.64390277  0.66107804  0.21453860     0.29300
C558        C  0.62682510  0.69070819  0.20318057    -0.21500
C559        C  0.65861915  0.73450766  0.18871703    -0.09500
C560        C  0.70677953  0.74668320  0.18367019     0.29300
F561        F  0.73789170  0.78808789  0.16888659    -0.20100
H562        H  0.76129383  0.72771415  0.19113664     0.17700
H563        H  0.58941900  0.68066348  0.20695666     0.17700
F564        F  0.61312318  0.62004277  0.22974561    -0.20000
C565        C  0.13406068  0.54443298  0.28911144    -0.21500
C566        C  0.17766094  0.54871744  0.27882367    -0.09500
C567        C  0.22133827  0.59182980  0.28496240     0.29300
C568        C  0.22107138  0.62932147  0.30120753    -0.21500
C569        C  0.17740327  0.62480564  0.31161953    -0.09500
C570        C  0.13374527  0.58179436  0.30522161     0.29300
F571        F  0.09045075  0.57539549  0.31457813    -0.20100
H572        H  0.09984531  0.51179415  0.28491508     0.17700
H573        H  0.25513221  0.66211802  0.30540171     0.17700
F574        F  0.26438478  0.59801458  0.27529800    -0.20000
C575        C  0.00687724  0.73792608  0.38974223    -0.21500
C576        C  0.05249437  0.75593228  0.40363228    -0.09500
C577        C  0.05532151  0.75636394  0.43537485     0.29300
C578        C  0.01305980  0.73694541  0.45275065    -0.21500
C579        C  0.96726129  0.71475988  0.43875164    -0.09500
C580        C  0.96446658  0.71645706  0.40709637     0.29300
F581        F  0.92078368  0.69465770  0.39292630    -0.20100
H582        H  0.00374191  0.73626947  0.36529647     0.17700
H583        H  0.01597981  0.73509925  0.47710139     0.17700
F584        F  0.09858970  0.77247469  0.44948886    -0.20000
C585        C  0.34993960  0.98055128  0.38229044    -0.21500
C586        C  0.33579684  0.01522994  0.37754453    -0.09500
C587        C  0.29348622  0.00231483  0.36063318     0.29300
C588        C  0.26431201  0.95480951  0.35070011    -0.21500
C589        C  0.27745065  0.91975459  0.35648810    -0.09500
C590        C  0.32147062  0.93332481  0.37135343     0.31700
F591        F  0.33546192  0.90028840  0.37687017    -0.20100
H592        H  0.38242171  0.98972710  0.39512654     0.17700
H593        H  0.23087574  0.94514475  0.33884074     0.17700
F594        F  0.27846542  0.03464454  0.35538162    -0.20000
C595        C  0.95913676  0.70406827  0.27450467    -0.21500
C596        C  0.92530487  0.65442722  0.27525810    -0.09500
C597        C  0.93966068  0.62206996  0.28630183     0.29300
C598        C  0.98644464  0.63971070  0.29791964    -0.21500
C599        C  0.01991826  0.68949885  0.29753338    -0.09500
C600        C  0.00615584  0.72148344  0.28513787     0.29300
F601        F  0.03732036  0.76998828  0.28487572    -0.20100
H602        H  0.94902531  0.72956919  0.26586314     0.17700
H603        H  0.99643097  0.61461989  0.30743872     0.17700
F604        F  0.90798606  0.57372909  0.28705810    -0.20000
C605        C  0.28066159  0.79319667  0.43977458    -0.21500
C606        C  0.23610371  0.75248298  0.43164370    -0.09500
C607        C  0.20549099  0.72270152  0.45484725     0.29300
C608        C  0.21769760  0.73542696  0.48520310    -0.21500
C609        C  0.26052093  0.77811030  0.49331532    -0.09500
C610        C  0.29286455  0.80596262  0.47018829     0.29300
F611        F  0.33511047  0.84690369  0.47670274    -0.20100
H612        H  0.30530047  0.81668584  0.42249728     0.17700
H613        H  0.19209994  0.71285892  0.50236782     0.17700
F614        F  0.16223448  0.68292198  0.44837600    -0.20000
C615        C  0.19208296  0.81683556  0.22827907    -0.21500
C616        C  0.21472233  0.79564352  0.24437124    -0.09500
C617        C  0.23819818  0.77540954  0.22816347     0.29300
C618        C  0.23892207  0.77673594  0.19649234    -0.21500
C619        C  0.21591442  0.79774517  0.18046067    -0.09500
C620        C  0.19244888  0.81783314  0.19678872     0.29300
F621        F  0.17030313  0.83922627  0.18248753    -0.20100
H622        H  0.17340421  0.83232460  0.24007635     0.17700
H623        H  0.25759299  0.76138776  0.18453270     0.17700
F624        F  0.26075388  0.75470154  0.24278253    -0.20000
O625        O  0.21656307  0.70236934  0.83581920    -0.85500
O626        O  0.22218417  0.76609874  0.79240801    -0.82600
C627        C  0.21111944  0.79305254  0.77773799     0.97900
O628        O  0.19620235  0.81776484  0.79155576    -0.82600
O629        O  0.10314635  0.74590465  0.80114220    -0.85200
C630        C  0.06744358  0.70919228  0.81240249     1.02500
O631        O  0.07102861  0.69254438  0.83780699    -0.78000
O632        O  0.13766172  0.66334712  0.83334630    -0.78200
C633        C  0.17726732  0.66550248  0.82777213     1.02400
O634        O  0.24403339  0.77809882  0.88051549    -0.85500
O635        O  0.26013251  0.84387269  0.83632326    -0.82600
C636        C  0.24394064  0.86903756  0.84811064     0.98000
O637        O  0.19904530  0.85151251  0.85195664    -0.82600
O638        O  0.10047676  0.78258361  0.85891717    -0.85200
C639        C  0.09387420  0.76327367  0.88485687     1.02400
O640        O  0.11748367  0.74318481  0.89276367    -0.78000
O641        O  0.18026368  0.70831293  0.89150268    -0.78200
C642        C  0.21955175  0.74549436  0.89955163     1.02400
Cr643      Cr  0.23138389  0.77154444  0.83668070     1.93700
Cr644      Cr  0.15154006  0.79695087  0.82722663     1.93200
Cr645      Cr  0.12987667  0.70548432  0.86240909     1.39100
O646        O  0.17084322  0.75800217  0.84223957    -1.23300
O647        O  0.70933990  0.49696894  0.75300345    -0.85500
O648        O  0.77199334  0.55443756  0.70904297    -0.82600
C649        C  0.79858646  0.59240783  0.69425080     0.97900
O650        O  0.82462851  0.63176706  0.70810270    -0.82600
O651        O  0.75155286  0.65128997  0.71604711    -0.85200
C652        C  0.71422381  0.64943638  0.72683661     1.02500
O653        O  0.69867140  0.63134365  0.75283320    -0.78000
O654        O  0.66953471  0.53597153  0.75105253    -0.78200
C655        C  0.67198714  0.49876271  0.74544778     1.02400
O656        O  0.78527274  0.54656222  0.79727318    -0.85500
O657        O  0.85051569  0.59613676  0.75316501    -0.82600
C658        C  0.87510632  0.63739904  0.76539306     0.98000
O659        O  0.85742856  0.66476544  0.76840213    -0.82600
O660        O  0.78808510  0.69432907  0.77287324    -0.85200
C661        C  0.76939137  0.68295974  0.79891504     1.02400
O662        O  0.75119059  0.64001666  0.80806552    -0.78000
O663        O  0.71645062  0.54209316  0.80895936    -0.78200
C664        C  0.75325484  0.53900322  0.81651842     1.02400
Cr665      Cr  0.77826070  0.55176470  0.75344259     1.93700
Cr666      Cr  0.80310250  0.65638264  0.74275691     1.93200
Cr667      Cr  0.71259891  0.58773225  0.77887033     1.39100
O668        O  0.76455022  0.59860145  0.75853635    -1.23300
O669        O  0.50411998  0.79708009  0.66876238    -0.85500
O670        O  0.56194747  0.79247323  0.62466441    -0.82600
C671        C  0.60007738  0.80388654  0.61005360     0.97900
O672        O  0.63940079  0.81730674  0.62413339    -0.82600
O673        O  0.66110268  0.91000280  0.63454132    -0.85200
C674        C  0.66018278  0.94542370  0.64611801     1.02500
O675        O  0.64067338  0.94161301  0.67169942    -0.78000
O676        O  0.54441169  0.87596170  0.66679378    -0.78200
C677        C  0.50664555  0.83649741  0.66113858     1.02400
O678        O  0.55172986  0.76814405  0.71283482    -0.85500
O679        O  0.60105837  0.75278238  0.66816193    -0.82600
C680        C  0.64230111  0.76846057  0.68025329     0.98000
O681        O  0.67007147  0.81313433  0.68453267    -0.82600
O682        O  0.70088320  0.91131442  0.69215082    -0.85200
C683        C  0.68833683  0.91703394  0.71823576     1.02400
O684        O  0.64459225  0.89330242  0.72598671    -0.78000
O685        O  0.54639464  0.83199045  0.72427086    -0.78200
C686        C  0.54307319  0.79206381  0.73190672     1.02400
Cr687      Cr  0.55800574  0.78184126  0.66899837     1.93700
Cr688      Cr  0.66359785  0.86113689  0.66014594     1.93200
Cr689      Cr  0.59445294  0.88257738  0.69574244     1.39100
O690        O  0.60541736  0.84193409  0.67509046    -1.23300
O691        O  0.49768621  0.70148937  0.92252738    -0.85500
O692        O  0.55806600  0.76583049  0.96520370    -0.82600
C693        C  0.59679664  0.79319762  0.97922278     0.97900
O694        O  0.63615354  0.81681319  0.96480921    -0.82600
O695        O  0.65617004  0.74468383  0.95368215    -0.85200
C696        C  0.65406349  0.70760160  0.94232082     1.02500
O697        O  0.63293501  0.69111355  0.91717429    -0.78000
O698        O  0.53736603  0.66233421  0.92404789    -0.78200
C699        C  0.50018473  0.66460159  0.93030451     1.02400
O700        O  0.54447611  0.77680874  0.87719277    -0.85500
O701        O  0.59592945  0.84277428  0.92103700    -0.82600
C702        C  0.63700019  0.86817416  0.90884556     0.98000
O703        O  0.66401010  0.85061331  0.90397241    -0.82600
O704        O  0.69264601  0.78173662  0.89533096    -0.85200
C705        C  0.67881793  0.76221565  0.86957082     1.02400
O706        O  0.63461541  0.74133860  0.86258298    -0.78000
O707        O  0.53687072  0.70653709  0.86628049    -0.78200
C708        C  0.53547018  0.74400590  0.85820582     1.02400
Cr709      Cr  0.55223241  0.77057582  0.92095807     1.93700
Cr710      Cr  0.65782115  0.79587893  0.92818471     1.93200
Cr711      Cr  0.58595042  0.70408013  0.89400468     1.39100
O712        O  0.59878720  0.75687247  0.91427375    -1.23300
O713        O  0.30459895  0.50718039  0.00226308    -0.85500
O714        O  0.24215994  0.44827696  0.95808218    -0.82600
C715        C  0.21547680  0.40989487  0.94360036     0.97900
O716        O  0.18974870  0.37078192  0.95782380    -0.82600
O717        O  0.26201124  0.35034748  0.96794656    -0.85200
C718        C  0.29928136  0.35246702  0.97930289     1.02500
O719        O  0.31538458  0.37236472  0.00480579    -0.78000
O720        O  0.34454157  0.46836257  0.00048135    -0.78200
C721        C  0.34206482  0.50572531  0.99492044     1.02400
O722        O  0.22863292  0.45845583  0.54613388    -0.85500
O723        O  0.16378040  0.40847034  0.50166149    -0.82600
C724        C  0.13890416  0.36766300  0.51431784     0.98000
O725        O  0.15607444  0.34005803  0.51833217    -0.82600
O726        O  0.22475985  0.31056487  0.52531751    -0.85200
C727        C  0.24374558  0.32292159  0.55128577     1.02400
O728        O  0.26354774  0.36648475  0.55939418    -0.78000
O729        O  0.29818053  0.46439178  0.55798149    -0.78200
C730        C  0.26113641  0.46695802  0.56541681     1.02400
Cr731      Cr  0.23583578  0.45233030  0.00240289     1.93700
Cr732      Cr  0.21059109  0.34724223  0.99367729     1.93200
Cr733      Cr  0.30175074  0.41743040  0.52920708     1.39100
O734        O  0.24946254  0.40559827  0.00858774    -1.23300
O735        O  0.79714882  0.30023803  0.58393414    -0.85500
O736        O  0.79340657  0.23805526  0.54032094    -0.82600
C737        C  0.80464887  0.21131007  0.52578401     0.97900
O738        O  0.81939516  0.18666082  0.53989080    -0.82600
O739        O  0.91183799  0.26187230  0.54837310    -0.85200
C740        C  0.94735203  0.29871695  0.55981789     1.02500
O741        O  0.94393756  0.31384184  0.58572674    -0.78000
O742        O  0.87616033  0.34131454  0.58285105    -0.78200
C743        C  0.83613034  0.33796506  0.57662266     1.02400
O744        O  0.77143844  0.22433717  0.62836320    -0.85500
O745        O  0.75781802  0.15986242  0.58468191    -0.82600
C746        C  0.77560837  0.13648282  0.59728194     0.98000
O747        O  0.82080211  0.15496986  0.60015732    -0.82600
O748        O  0.91830013  0.22504524  0.60524687    -0.85200
C749        C  0.92439299  0.24253756  0.63154107     1.02400
O750        O  0.89942496  0.26054869  0.64039117    -0.78000
O751        O  0.83494614  0.29369167  0.64051514    -0.78200
C752        C  0.79548456  0.25619440  0.64785069     1.02400
Cr753      Cr  0.78422772  0.23178831  0.58465951     1.93700
Cr754      Cr  0.86571456  0.20947830  0.57468842     1.93200
Cr755      Cr  0.88542090  0.29879876  0.61097979     1.39100
O756        O  0.84517569  0.24680063  0.59028775    -1.23300
O757        O  0.51469914  0.21292004  0.91857997    -0.85500
O758        O  0.45610477  0.21785063  0.87500532    -0.82600
C759        C  0.41818478  0.20709183  0.86025937     0.97900
O760        O  0.37816214  0.19069065  0.87393048    -0.82600
O761        O  0.35896571  0.09775577  0.88231383    -0.85200
C762        C  0.36116648  0.06241400  0.89318773     1.02500
O763        O  0.38075903  0.06577831  0.91883662    -0.78000
O764        O  0.47611729  0.13417482  0.91513736    -0.78200
C765        C  0.51302358  0.17447092  0.90977018     1.02400
O766        O  0.46407080  0.23704827  0.96305333    -0.85500
O767        O  0.41396842  0.25256218  0.91928333    -0.82600
C768        C  0.37271055  0.23498979  0.93154388     0.98000
O769        O  0.34592567  0.18986110  0.93458206    -0.82600
O770        O  0.31797736  0.09210811  0.94005430    -0.85200
C771        C  0.33044928  0.08581601  0.96614506     1.02400
O772        O  0.37410899  0.10963552  0.97423970    -0.78000
O773        O  0.47155274  0.17415880  0.97396883    -0.78200
C774        C  0.47295791  0.21302720  0.98201193     1.02400
Cr775      Cr  0.45900653  0.22571238  0.91930053     1.93700
Cr776      Cr  0.35453498  0.14445331  0.90900256     1.93200
Cr777      Cr  0.42523292  0.12410675  0.94416571     1.39100
O778        O  0.41284485  0.16463351  0.92427931    -1.23300
O779        O  0.70752210  0.21097832  0.83753398    -0.85500
O780        O  0.77218128  0.21771836  0.88063480    -0.82600
C781        C  0.79903418  0.20656374  0.89535144     0.97900
O782        O  0.82341960  0.19129055  0.88163372    -0.82600
O783        O  0.74950608  0.09773244  0.87577749    -0.85200
C784        C  0.71141604  0.06196316  0.86572023     1.02500
O785        O  0.69400892  0.06412301  0.84023612    -0.78000
O786        O  0.66582947  0.13204183  0.84083128    -0.78200
C787        C  0.66949152  0.17264519  0.84523808     1.02400
O788        O  0.78031495  0.23288765  0.79206195    -0.85500
O789        O  0.84775704  0.25062696  0.83517741    -0.82600
C790        C  0.87111191  0.23277512  0.82293625     0.98000
O791        O  0.85279485  0.18750790  0.82099993    -0.82600
O792        O  0.78337565  0.08923524  0.81853292    -0.85200
C793        C  0.76420080  0.08137077  0.79258693     1.02400
O794        O  0.74349492  0.10400173  0.78383347    -0.78000
O795        O  0.71048294  0.16825921  0.78198771    -0.78200
C796        C  0.74729545  0.20739255  0.77346402     1.02400
Cr797      Cr  0.77575987  0.22356517  0.83611606     1.93700
Cr798      Cr  0.79967761  0.14326868  0.84790315     1.93200
Cr799      Cr  0.70725561  0.12042289  0.81315572     1.39100
O800        O  0.76062859  0.16223244  0.83233785    -1.23300
O801        O  0.30959353  0.79638566  0.58943333    -0.85500
O802        O  0.24564735  0.79022181  0.63262240    -0.82600
C803        C  0.21860891  0.80122219  0.64706494     0.97900
O804        O  0.19383869  0.81579962  0.63288517    -0.82600
O805        O  0.26751200  0.90927285  0.62518624    -0.85200
C806        C  0.30475292  0.94511839  0.61439396     1.02500
O807        O  0.32093667  0.94224422  0.58871731    -0.78000
O808        O  0.34990273  0.87532943  0.59146679    -0.78200
C809        C  0.34700748  0.83536284  0.59715168     1.02400
O810        O  0.23494256  0.77079962  0.54425003    -0.85500
O811        O  0.16843125  0.75436208  0.58748724    -0.82600
C812        C  0.14409264  0.77153629  0.57542411     0.98000
O813        O  0.16208747  0.81666839  0.57249863    -0.82600
O814        O  0.23139140  0.91501338  0.56765694    -0.85200
C815        C  0.24968486  0.92162780  0.54154134     1.02400
O816        O  0.26954347  0.89812546  0.53322026    -0.78000
O817        O  0.30422767  0.83515685  0.53304532    -0.78200
C818        C  0.26742389  0.79541383  0.52521142     1.02400
Cr819      Cr  0.24076117  0.78231942  0.58812510     1.93700
Cr820      Cr  0.21627184  0.86240753  0.59825869     1.93200
Cr821      Cr  0.30746774  0.88443511  0.56303787     1.39100
O822        O  0.25494997  0.84313229  0.58300641    -1.23300
O823        O  0.21554069  0.50874691  0.75525459    -0.85500
O824        O  0.21976761  0.44902111  0.79836920    -0.82600
C825        C  0.20834911  0.41062780  0.81273114     0.97900
O826        O  0.19245298  0.37105585  0.79858635    -0.82600
O827        O  0.09943615  0.35114946  0.78845496    -0.85200
C828        C  0.06415186  0.35273209  0.77681894     1.02500
O829        O  0.06871496  0.37411109  0.75174465    -0.78000
O830        O  0.13655933  0.47013779  0.75726003    -0.78200
C831        C  0.17665747  0.50724764  0.76295146     1.02400
O832        O  0.24168374  0.46023883  0.71036323    -0.85500
O833        O  0.25654759  0.40908892  0.75399827    -0.82600
C834        C  0.23978782  0.36853926  0.74093481     0.98000
O835        O  0.19476886  0.34166892  0.73738437    -0.82600
O836        O  0.09753413  0.31320892  0.73059452    -0.85200
C837        C  0.09162701  0.32645131  0.70471168     1.02400
O838        O  0.11543665  0.37033602  0.69715867    -0.78000
O839        O  0.17897649  0.46801264  0.69939621    -0.78200
C840        C  0.21786027  0.46947659  0.69141809     1.02400
Cr841      Cr  0.22902603  0.45359551  0.75410821     1.93700
Cr842      Cr  0.14801433  0.34868840  0.76256897     1.93200
Cr843      Cr  0.12808041  0.42016233  0.72787766     1.39100
O844        O  0.16818442  0.40746037  0.74818124    -1.23300
O845        O  0.79968524  0.49779159  0.50647981    -0.85500
O846        O  0.79452301  0.55681956  0.54936287    -0.82600
C847        C  0.80517854  0.59498340  0.56362703     0.97900
O848        O  0.82082362  0.63457459  0.54942235    -0.82600
O849        O  0.91462087  0.65557595  0.54078199    -0.85200
C850        C  0.94999957  0.65362947  0.52981433     1.02500
O851        O  0.94597349  0.63285231  0.50463297    -0.78000
O852        O  0.87866857  0.53670868  0.50883337    -0.78200
C853        C  0.83870332  0.49919581  0.51392159     1.02400
O854        O  0.77362332  0.54628225  0.96131023    -0.85500
O855        O  0.75780698  0.59666648  0.00435590    -0.82600
C856        C  0.77457368  0.63733574  0.99133779     0.98000
O857        O  0.81963661  0.66455857  0.48812916    -0.82600
O858        O  0.91812387  0.69424432  0.98272562    -0.85200
C859        C  0.92476330  0.68139160  0.95697893     1.02400
O860        O  0.90052852  0.63774513  0.94916608    -0.78000
O861        O  0.83723117  0.54004730  0.95068121    -0.78200
C862        C  0.79786728  0.53766498  0.94257487     1.02400
Cr863      Cr  0.78586689  0.55267524  0.50505843     1.93700
Cr864      Cr  0.86633892  0.65786597  0.51403705     1.93200
Cr865      Cr  0.88740723  0.58733804  0.97978279     1.39100
O866        O  0.84672428  0.59927456  0.49964267    -1.23300
O867        O  0.51704183  0.30506660  0.67070621    -0.85500
O868        O  0.46017290  0.24215958  0.71503954    -0.82600
C869        C  0.42204483  0.21602406  0.72982485     0.97900
O870        O  0.38232590  0.19027563  0.71611579    -0.82600
O871        O  0.35967089  0.26099527  0.70614559    -0.85200
C872        C  0.36059762  0.29755348  0.69463252     1.02500
O873        O  0.38098733  0.31429765  0.66939792    -0.78000
O874        O  0.47718025  0.34380290  0.67406154    -0.78200
C875        C  0.51483255  0.34164665  0.67924844     1.02400
O876        O  0.46752738  0.22890958  0.62673479    -0.85500
O877        O  0.41962289  0.16364287  0.67162017    -0.82600
C878        C  0.37818115  0.13805597  0.65978023     0.98000
O879        O  0.35030746  0.15501017  0.65603025    -0.82600
O880        O  0.31982567  0.22296070  0.64874799    -0.85200
C881        C  0.33204495  0.24231340  0.62285253     1.02400
O882        O  0.37578219  0.26337129  0.61490777    -0.78000
O883        O  0.47373742  0.29882416  0.61599995    -0.78200
C884        C  0.47534445  0.26160640  0.60777832     1.02400
Cr885      Cr  0.46278427  0.23594251  0.67065719     1.93700
Cr886      Cr  0.35737434  0.20983048  0.68043827     1.93200
Cr887      Cr  0.42658851  0.30146310  0.64505300     1.39100
O888        O  0.41541671  0.24906873  0.66526425    -1.23300
C889        C  0.34975198  0.36671365  0.71026362    -0.21500
C890        C  0.33218720  0.31677616  0.70879245    -0.09500
C891        C  0.28475158  0.28435770  0.71839006     0.29300
C892        C  0.25524888  0.30165305  0.72896835    -0.21500
C893        C  0.27259944  0.35153531  0.73065202    -0.09500
C894        C  0.32044074  0.38414780  0.72154644     0.29300
F895        F  0.33814893  0.43263939  0.72238370    -0.20100
H896        H  0.38599812  0.39210525  0.70249377     0.17700
H897        H  0.21851648  0.27584763  0.73570727     0.17700
F898        F  0.26595549  0.23580262  0.71594936    -0.20000
C899        C  0.05883750  0.75268190  0.57053123    -0.21500
C900        C  0.09363007  0.73887823  0.56584929    -0.09500
C901        C  0.07994339  0.69474911  0.55129294     0.29300
C902        C  0.03259024  0.66611888  0.54042515    -0.21500
C903        C  0.99790306  0.68032563  0.54470345    -0.09500
C904        C  0.01129534  0.72355432  0.56044461     0.29300
F905        F  0.97929179  0.73923831  0.56457583    -0.20100
H906        H  0.06864477  0.78643640  0.58185487     0.17700
H907        H  0.02321305  0.63322003  0.52817476     0.17700
F908        F  0.11288131  0.68055807  0.54621361    -0.20000
C909        C  0.31382320  0.05160295  0.65707568    -0.21500
C910        C  0.36166298  0.08758147  0.65114821    -0.09500
C911        C  0.39254073  0.07511734  0.63601922     0.29300
C912        C  0.37453626  0.02799510  0.62511041    -0.21500
C913        C  0.32604990  0.99230592  0.63008172    -0.09500
C914        C  0.29627383  0.00422280  0.64714642     0.29300
F915        F  0.24921151  0.97097187  0.65257908    -0.20100
H916        H  0.28972946  0.06041031  0.66909129     0.17700
H917        H  0.39813424  0.01968618  0.61210642     0.17700
F918        F  0.43921324  0.10910062  0.63022984    -0.20000
C919        C  0.95495121  0.24968110  0.81420830    -0.21500
C920        C  0.92083866  0.26494256  0.81209272    -0.09500
C921        C  0.93465296  0.31050319  0.79932141     0.29300
C922        C  0.98173605  0.33970139  0.78832501    -0.21500
C923        C  0.01593171  0.32448282  0.79072945    -0.09500
C924        C  0.00214315  0.27921600  0.80393302     0.29300
F925        F  0.03353641  0.26228504  0.80546683    -0.20100
H926        H  0.94503231  0.21469866  0.82388344     0.17700
H927        H  0.99143281  0.37404805  0.77776533     0.17700
F928        F  0.90220274  0.32593446  0.79640525    -0.20000
C929        C  0.63847785  0.21519144  0.87791192    -0.21500
C930        C  0.62918035  0.17516529  0.85991380    -0.09500
C931        C  0.58144631  0.13626146  0.85769226     0.29300
C932        C  0.54428718  0.13669397  0.87396047    -0.21500
C933        C  0.55362314  0.17593977  0.89269830    -0.09500
C934        C  0.60108460  0.21569116  0.89419079     0.29300
F935        F  0.61172728  0.25421838  0.91210589    -0.20100
H936        H  0.67499339  0.24545482  0.88012647     0.17700
H937        H  0.50791772  0.10615483  0.87175284     0.17700
F938        F  0.57049491  0.09785748  0.83956760    -0.20000
C939        C  0.25049424  0.95751630  0.49124827    -0.21500
C940        C  0.25574175  0.96250577  0.52275448    -0.09500
C941        C  0.27732234  0.00911200  0.53553302     0.29300
C942        C  0.29818744  0.05004013  0.51685140    -0.21500
C943        C  0.29619977  0.04506730  0.98527599    -0.09500
C944        C  0.26971256  0.99845903  0.97258540     0.29300
F945        F  0.26749892  0.99225688  0.94212379    -0.20100
H946        H  0.23436510  0.92196241  0.48103163     0.17700
H947        H  0.31876081  0.08554907  0.52702671     0.17700
F948        F  0.28350644  0.01524991  0.56594358    -0.20000
C949        C  0.48007704  0.27118523  0.52217168    -0.21500
C950        C  0.48285197  0.23006290  0.51393452    -0.09500
C951        C  0.48960370  0.20336303  0.53691442     0.29300
C952        C  0.49020133  0.21575658  0.56735812    -0.21500
C953        C  0.48416131  0.25495807  0.57561558    -0.09500
C954        C  0.48062133  0.28353546  0.55253824     0.29300
F955        F  0.47443262  0.32155975  0.55915388    -0.20100
H956        H  0.47500225  0.29271299  0.50512137     0.17700
H957        H  0.49332224  0.19322973  0.58456679     0.17700
F958        F  0.49328287  0.16390766  0.53021555    -0.20000
C959        C  0.46363023  0.22637772  0.81141677    -0.21500
C960        C  0.42029519  0.21300699  0.82699169    -0.09500
C961        C  0.37852550  0.20242545  0.81024414     0.29300
C962        C  0.37979936  0.20339805  0.77874904    -0.21500
C963        C  0.42265258  0.21549015  0.76317898    -0.09500
C964        C  0.46498364  0.22794891  0.77977286     0.29300
F965        F  0.50719671  0.24016486  0.76552214    -0.20100
H966        H  0.49634116  0.23471206  0.82368909     0.17700
H967        H  0.34702687  0.19488567  0.76647607     0.17700
F968        F  0.33613418  0.19061318  0.82412248    -0.20000
C969        C  0.87965561  0.41792912  0.55047881    -0.21500
C970        C  0.83565186  0.37861876  0.56050723    -0.09500
C971        C  0.79231070  0.37835587  0.55388822     0.29300
C972        C  0.79344220  0.41719964  0.53829100    -0.21500
C973        C  0.83762759  0.45690107  0.52880467    -0.09500
C974        C  0.88079514  0.45646385  0.53478929     0.29300
F975        F  0.92438411  0.49319246  0.52553025    -0.20100
H976        H  0.91360428  0.41894472  0.55465561     0.17700
H977        H  0.75964266  0.41639523  0.03395763     0.17700
F978        F  0.74882373  0.34084572  0.56253585    -0.20000
C979        C  0.05452211  0.29643209  0.65400915    -0.21500
C980        C  0.05075121  0.29263596  0.68558706    -0.09500
C981        C  0.00482671  0.26394513  0.69883657     0.29300
C982        C  0.96308845  0.24409191  0.68088170    -0.21500
C983        C  0.96674298  0.25072381  0.64947716    -0.09500
C984        C  0.01289491  0.27479037  0.63597622     0.29300
F985        F  0.01766837  0.28218597  0.60561785    -0.20100
H986        H  0.08946312  0.31865770  0.64343357     0.17700
H987        H  0.92787825  0.22600562  0.69162867     0.17700
F988        F  0.99981804  0.25977413  0.72936309    -0.20000
C989        C  0.73708333  0.20363522  0.68778504    -0.21500
C990        C  0.77809419  0.24794214  0.67968022    -0.09500
C991        C  0.80476283  0.28101245  0.70276705     0.29300
C992        C  0.79242019  0.26858659  0.73311269    -0.21500
C993        C  0.75342102  0.22300354  0.74128838    -0.09500
C994        C  0.72483577  0.19111914  0.71816376     0.29300
F995        F  0.68695978  0.14662051  0.72475657    -0.20100
H996        H  0.71563689  0.17730528  0.67060590     0.17700
H997        H  0.81499118  0.29412674  0.75035085     0.17700
F998        F  0.84424927  0.32442947  0.69627095    -0.20000
C999        C  0.78854553  0.23904166  0.97630071    -0.21500
C1000       C  0.80136206  0.20901300  0.99240853    -0.09500
C1001       C  0.81381949  0.17896937  0.97617841     0.29300
C1002       C  0.81395593  0.17954923  0.94470039    -0.21500
C1003       C  0.80120290  0.20947151  0.92861268    -0.09500
C1004       C  0.78818208  0.23915426  0.94464978     0.29300
F1005       F  0.77595700  0.26882511  0.92983640    -0.20100
H1006       H  0.77924537  0.26285073  0.98818238     0.17700
H1007       H  0.82325226  0.15568863  0.93286071     0.17700
F1008       F  0.82600989  0.14892091  0.99054764    -0.20000
C1009       C  0.26767524  0.26386816  0.61792997    -0.21500
C1010       C  0.29706540  0.24822038  0.60405124    -0.09500
C1011       C  0.30033551  0.24916620  0.57237665     0.29300
C1012       C  0.27729895  0.26849482  0.55509589    -0.21500
C1013       C  0.25247051  0.28904773  0.56917680    -0.09500
C1014       C  0.24631859  0.28514457  0.60067990     0.29300
F1015       F  0.22241545  0.30460239  0.61483804    -0.20100
H1016       H  0.26521208  0.26407370  0.64238602     0.17700
H1017       H  0.28298957  0.27176532  0.53082939     0.17700
F1018       F  0.32882206  0.23488151  0.55834025    -0.20000
C1019       C  0.28749502  0.48049750  0.61963815    -0.21500
C1020       C  0.25478179  0.47763656  0.59724429    -0.09500
C1021       C  0.21332032  0.47938548  0.60625760     0.29300
C1022       C  0.20328741  0.48020653  0.63697304    -0.21500
C1023       C  0.23411937  0.47922915  0.65939958    -0.09500
C1024       C  0.27744858  0.48126834  0.65033320     0.29300
F1025       F  0.30911955  0.48147670  0.67102589    -0.20100
H1026       H  0.31986775  0.47963133  0.61351599     0.17700
H1027       H  0.16986964  0.47893011  0.64315162     0.17700
F1028       F  0.18097973  0.47776828  0.58557351    -0.20000
C1029       C  0.19291958  0.36735975  0.86208641    -0.21500
C1030       C  0.21279909  0.41129847  0.84612817    -0.09500
C1031       C  0.23430643  0.45496710  0.86255130     0.29300
C1032       C  0.23498850  0.45429175  0.89419756    -0.21500
C1033       C  0.21404086  0.41025873  0.91011400    -0.09500
C1034       C  0.19343447  0.36666306  0.89364510     0.29300
F1035       F  0.17421114  0.32318433  0.90789617    -0.20100
H1036       H  0.17620236  0.33316015  0.85013870     0.17700
H1037       H  0.25166687  0.48837838  0.90626481     0.17700
F1038       F  0.25456336  0.49837525  0.84816744    -0.20000
C1039       C  0.00486261  0.28929775  0.52710514    -0.21500
C1040       C  0.99479936  0.31969424  0.54478704    -0.09500
C1041       C  0.03209847  0.36718427  0.55081910     0.29300
C1042       C  0.07878356  0.38332605  0.53979982    -0.21500
C1043       C  0.08908685  0.35184878  0.52360533    -0.09500
C1044       C  0.05169859  0.30492010  0.51696996     0.29300
F1045       F  0.06053231  0.27411709  0.00080266    -0.20100
H1046       H  0.97693526  0.25239695  0.02239461     0.17700
H1047       H  0.10734582  0.41976207  0.54493181     0.17700
F1048       F  0.02371066  0.39753161  0.56780911    -0.20000
C1049       C  0.38691474  0.31123495  0.95604685    -0.21500
C1050       C  0.35525290  0.26733963  0.94161539    -0.09500
C1051       C  0.30645193  0.25391276  0.93770404     0.29300
C1052       C  0.28943051  0.28346641  0.94862911    -0.21500
C1053       C  0.32040101  0.32627000  0.96432222    -0.09500
C1054       C  0.36951390  0.34027308  0.96776588     0.29300
F1055       F  0.40043765  0.38163910  0.98259902    -0.20100
H1056       H  0.42469797  0.32210208  0.95920706     0.17700
H1057       H  0.25135647  0.27171713  0.94592873     0.17700
F1058       F  0.27516429  0.21214354  0.92335944    -0.20000
C1059       C  0.42225423  0.54328852  0.96902005    -0.21500
C1060       C  0.38301958  0.54750683  0.97947105    -0.09500
C1061       C  0.38278387  0.59083624  0.97371429     0.29300
C1062       C  0.42064796  0.62848191  0.95751257    -0.21500
C1063       C  0.45959394  0.62395031  0.94677982    -0.09500
C1064       C  0.46007016  0.58084325  0.95294949     0.29300
F1065       F  0.49683571  0.57449927  0.94331383    -0.20100
H1066       H  0.42355850  0.51046757  0.97296711     0.17700
H1067       H  0.41954446  0.66139095  0.95351427     0.17700
F1068       F  0.34607276  0.59702473  0.98363948    -0.20000
C1069       C  0.64096291  0.98131911  0.87909360    -0.21500
C1070       C  0.69051672  0.01525055  0.88178253    -0.09500
C1071       C  0.72128358  0.00145049  0.89607036     0.29300
C1072       C  0.70331472  0.95361929  0.90523888    -0.21500
C1073       C  0.65425006  0.91918602  0.90128976    -0.09500
C1074       C  0.62268176  0.93378645  0.88930789     0.29300
F1075       F  0.57480837  0.90149124  0.88576854    -0.20100
H1076       H  0.61670148  0.99126261  0.86822404     0.17700
H1077       H  0.72799535  0.94322100  0.91496887     0.17700
F1078       F  0.76943522  0.03314164  0.89912301    -0.20000
C1079       C  0.72479300  0.71898452  0.97202159    -0.21500
C1080       C  0.68147379  0.68724458  0.95699268    -0.09500
C1081       C  0.66764483  0.63809569  0.95448351     0.29300
C1082       C  0.69723754  0.62140416  0.96670280    -0.21500
C1083       C  0.74150634  0.65382357  0.98064003    -0.09500
C1084       C  0.75480896  0.70267785  0.48341772     0.29300
F1085       F  0.79688259  0.73473541  0.49723397    -0.20100
H1086       H  0.73643837  0.75708612  0.47400196     0.17700
H1087       H  0.68643180  0.58355479  0.96439019     0.17700
F1088       F  0.62581793  0.60643608  0.94026623    -0.20000
C1089       C  0.42198149  0.79254190  0.64055798    -0.21500
C1090       C  0.46540046  0.83632407  0.64539098    -0.09500
C1091       C  0.46949846  0.87944939  0.63391524     0.29300
C1092       C  0.43115601  0.87847228  0.61798651    -0.21500
C1093       C  0.38777908  0.83472378  0.61302574    -0.09500
C1094       C  0.38350639  0.79161098  0.62463373     0.29300
F1095       F  0.34201122  0.74858735  0.62108621    -0.20100
H1096       H  0.41769679  0.75879935  0.64911148     0.17700
H1097       H  0.43557931  0.91231357  0.60950844     0.17700
F1098       F  0.51067400  0.92272721  0.63770800    -0.20000
C1099       C  0.71946930  0.95314682  0.76899725    -0.21500
C1100       C  0.72225072  0.95787125  0.73739649    -0.09500
C1101       C  0.74815106  0.00447834  0.72452732     0.29300
C1102       C  0.76550503  0.04548427  0.74288646    -0.21500
C1103       C  0.75920747  0.04061510  0.77431395    -0.09500
C1104       C  0.73861760  0.99422073  0.78742672     0.29300
F1105       F  0.73168669  0.98825532  0.81778900    -0.20100
H1106       H  0.69933412  0.91764321  0.77930294     0.17700
H1107       H  0.78110688  0.08089494  0.73242725     0.17700
F1108       F  0.75137758  0.01046022  0.69402991    -0.20000
C1109       C  0.52743491  0.80399734  0.78582083    -0.21500
C1110       C  0.53107974  0.77449938  0.76368590    -0.09500
C1111       C  0.52843732  0.73091778  0.77297476     0.29300
C1112       C  0.52613601  0.71942021  0.80374979    -0.21500
C1113       C  0.52650407  0.75093444  0.82599553    -0.09500
C1114       C  0.52514263  0.79250300  0.81658729     0.29300
F1115       F  0.52417499  0.82357852  0.83706279    -0.20100
H1116       H  0.52881775  0.83745709  0.77947984     0.17700
H1117       H  0.52686752  0.68703084  0.81016602     0.17700
F1118       F  0.53065281  0.70045911  0.75254817    -0.20000
C1119       C  0.55474626  0.78030939  0.56084384    -0.21500
C1120       C  0.59908325  0.80152092  0.57655114    -0.09500
C1121       C  0.64243064  0.82201617  0.55983050     0.29300
C1122       C  0.64115330  0.82003537  0.52828769    -0.21500
C1123       C  0.59685612  0.79770038  0.51257714    -0.09500
C1124       C  0.55349692  0.77825898  0.52920036     0.29300
F1125       F  0.50985728  0.75734356  0.51499924    -0.20100
H1126       H  0.52087106  0.76499000  0.57305815     0.17700
H1127       H  0.67512781  0.83548265  0.51616838     0.17700
F1128       F  0.68628516  0.84445066  0.57380098    -0.20000
C1129       C  0.67084937  0.02637797  0.63331202    -0.21500
C1130       C  0.68682710  0.99282309  0.63119843    -0.09500
C1131       C  0.73113060  0.00634455  0.61687691     0.29300
C1132       C  0.75942110  0.05304319  0.60560358    -0.21500
C1133       C  0.74369984  0.08672523  0.60781232    -0.09500
C1134       C  0.69875205  0.07292885  0.62128493     0.29300
F1135       F  0.68296295  0.10504586  0.62409653    -0.20100
H1136       H  0.63704252  0.01665259  0.64452536     0.17700
H1137       H  0.79398277  0.06307288  0.59533133     0.17700
F1138       F  0.74848939  0.97533020  0.61529593    -0.20000
C1139       C  0.55112002  0.42062311  0.70640921    -0.21500
C1140       C  0.55591091  0.38189689  0.69563829    -0.09500
C1141       C  0.59895415  0.38138858  0.70205474     0.29300
C1142       C  0.63609058  0.41889788  0.71878251    -0.21500
C1143       C  0.63122815  0.45764428  0.72945969    -0.09500
C1144       C  0.58807603  0.45798365  0.72308971     0.29300
F1145       F  0.58124471  0.49434247  0.73292995    -0.20100
H1146       H  0.51837848  0.42198363  0.70212651     0.17700
H1147       H  0.66898553  0.41783821  0.72306367     0.17700
F1148       F  0.60538126  0.34480066  0.69223087    -0.20000
C1149       C  0.78374445  0.54983139  0.61279669    -0.21500
C1150       C  0.80007401  0.59362914  0.59696582    -0.09500
C1151       C  0.81438611  0.63631436  0.61352064     0.29300
C1152       C  0.81413129  0.63531851  0.64505574    -0.21500
C1153       C  0.79901338  0.59186011  0.66086148    -0.09500
C1154       C  0.78285886  0.54878955  0.64444753     0.29300
F1155       F  0.76735898  0.50591361  0.65887101    -0.20100
H1156       H  0.77236980  0.51639301  0.60071389     0.17700
H1157       H  0.82552280  0.66876481  0.65714809     0.17700
F1158       F  0.82934593  0.67934140  0.59942219    -0.20000
C1159       C  0.72685462  0.52431514  0.87069664    -0.21500
C1160       C  0.76011659  0.52874259  0.84842964    -0.09500
C1161       C  0.80255749  0.52875037  0.85759311     0.29300
C1162       C  0.81291054  0.52813611  0.88829939    -0.21500
C1163       C  0.78144686  0.52754225  0.91059459    -0.09500
C1164       C  0.73719956  0.52363559  0.90142773     0.29300
F1165       F  0.70481400  0.52155000  0.92206403    -0.20100
H1166       H  0.69370567  0.52370784  0.86443993     0.17700
H1167       H  0.84704319  0.53087657  0.89457319     0.17700
F1168       F  0.83562085  0.53210039  0.83707752    -0.20000
C1169       C  0.73012642  0.73264177  0.80141681    -0.21500
C1170       C  0.75891677  0.71644081  0.81567109    -0.09500
C1171       C  0.76761817  0.72366042  0.84686060     0.29300
C1172       C  0.74552753  0.74424568  0.86376342    -0.21500
C1173       C  0.71272541  0.75585202  0.85003210    -0.09500
C1174       C  0.70631623  0.75123563  0.81847685     0.29300
F1175       F  0.67459678  0.76153376  0.80445519    -0.20100
H1176       H  0.72237281  0.72665492  0.77740763     0.17700
H1177       H  0.75050707  0.74676164  0.88809879     0.17700
F1178       F  0.79491785  0.70800580  0.86122261    -0.20000
C1179       C  0.72347434  0.71658952  0.69430087    -0.21500
C1180       C  0.69276572  0.67453353  0.71075406    -0.09500
C1181       C  0.64390268  0.66107761  0.71453773     0.29300
C1182       C  0.62682513  0.69070776  0.70317965    -0.21500
C1183       C  0.65861930  0.73450772  0.68871673    -0.09500
C1184       C  0.70677999  0.74668384  0.68367047     0.29300
F1185       F  0.73789246  0.78808908  0.66888748    -0.20100
H1186       H  0.76129432  0.72771525  0.69113746     0.17700
H1187       H  0.58941844  0.68066252  0.70695532     0.17700
F1188       F  0.61312287  0.62004177  0.72974415    -0.20000
C1189       C  0.13406097  0.54443199  0.78911320    -0.21500
C1190       C  0.17766104  0.54871746  0.77882412    -0.09500
C1191       C  0.22133816  0.59183073  0.78496156     0.29300
C1192       C  0.22107125  0.62932239  0.80120665    -0.21500
C1193       C  0.17740338  0.62480567  0.81161988    -0.09500
C1194       C  0.13374560  0.58179340  0.80522336     0.29300
F1195       F  0.09045134  0.57539355  0.81458129    -0.20100
H1196       H  0.09984588  0.51179247  0.78491793     0.17700
H1197       H  0.25513196  0.66211983  0.80539978     0.17700
F1198       F  0.26438439  0.59801646  0.77529581    -0.20000
C1199       C  0.00687691  0.73792600  0.88974213    -0.21500
C1200       C  0.05249403  0.75593216  0.90363218    -0.09500
C1201       C  0.05532112  0.75636366  0.93537476     0.29300
C1202       C  0.01305938  0.73694510  0.95275055    -0.21500
C1203       C  0.96726089  0.71475966  0.93875153    -0.09500
C1204       C  0.96446622  0.71645693  0.90709626     0.29300
F1205       F  0.92078334  0.69465763  0.89292616    -0.20100
H1206       H  0.00374161  0.73626946  0.86529636     0.17700
H1207       H  0.01597938  0.73509884  0.97710129     0.17700
F1208       F  0.09858928  0.77247429  0.94948878    -0.20000
C1209       C  0.34993980  0.98055121  0.88229077    -0.21500
C1210       C  0.33579672  0.01522978  0.87754495    -0.09500
C1211       C  0.29348606  0.00231472  0.86063373     0.29300
C1212       C  0.26431185  0.95480946  0.85070053    -0.21500
C1213       C  0.27745063  0.91975458  0.85648830    -0.09500
C1214       C  0.32147063  0.93332474  0.87135353     0.31700
F1215       F  0.33546207  0.90028837  0.87687005    -0.20100
H1216       H  0.38242139  0.98972685  0.89512655     0.17700
H1217       H  0.23087555  0.94514475  0.83884124     0.17700
F1218       F  0.27846513  0.03464440  0.85538239    -0.20000
C1219       C  0.95913703  0.70406861  0.77450435    -0.21500
C1220       C  0.92530494  0.65442775  0.77525791    -0.09500
C1221       C  0.93966060  0.62207042  0.78630178     0.29300
C1222       C  0.98644453  0.63971111  0.79791956    -0.21500
C1223       C  0.01991831  0.68949918  0.79753316    -0.09500
C1224       C  0.00615605  0.72148384  0.78513748     0.29300
F1225       F  0.03732072  0.76998863  0.78487517    -0.20100
H1226       H  0.94902553  0.72956991  0.76586258     0.17700
H1227       H  0.99643075  0.61462024  0.80743877     0.17700
F1228       F  0.90798584  0.57372961  0.78705821    -0.20000
C1229       C  0.28066123  0.79319668  0.93977450    -0.21500
C1230       C  0.23610325  0.75248291  0.93164368    -0.09500
C1231       C  0.20549046  0.72270150  0.95484717     0.29300
C1232       C  0.21769689  0.73542682  0.98520310    -0.21500
C1233       C  0.26052035  0.77811022  0.99331526    -0.09500
C1234       C  0.29286400  0.80596252  0.97018828     0.29300
F1235       F  0.33510991  0.84690363  0.97670274    -0.20100
H1236       H  0.30529992  0.81668560  0.92249739     0.17700
H1237       H  0.19209944  0.71285902  0.00236763     0.17700
F1238       F  0.16223391  0.68292198  0.94837589    -0.20000
C1239       C  0.19208327  0.81683589  0.72827906    -0.21500
C1240       C  0.21472189  0.79564309  0.74437123    -0.09500
C1241       C  0.23819677  0.77540807  0.72816344     0.29300
C1242       C  0.23892060  0.77673455  0.69649234    -0.21500
C1243       C  0.21591397  0.79774470  0.68046065    -0.09500
C1244       C  0.19244916  0.81783345  0.69678871     0.29300
F1245       F  0.17030425  0.83922743  0.68248753    -0.20100
H1246       H  0.17340522  0.83232564  0.74007633     0.17700
H1247       H  0.25759101  0.76138549  0.68453258     0.17700
F1248       F  0.26075148  0.75469905  0.74278247    -0.20000
loop_ 
_geom_bond_atom_site_label_1 
_geom_bond_atom_site_label_2 
_geom_bond_distance 
_geom_bond_site_symmetry_2 
_ccdc_geom_bond_type 
O1          Cr19   2.015       .  S
O1            C9   1.267       .  A
O2          Cr19   1.972       .  S
O2            C3   1.259       .  A
C3            O4   1.267       .  A
C3          C616   1.478       .  S
O4          Cr20   2.005       .  S
O5          Cr20   1.961       .  S
O5            C6   1.258       .  A
C6            O7   1.269       .  A
C6          C599   1.472       .  S
O7          Cr21   2.022       .  S
O8          Cr21   1.968       .  S
O8            C9   1.257       .  A
C9          C569   1.487       .  S
O10         Cr19   1.967       .  S
O10          C18   1.259       .  A
O11         Cr19   2.013       .  S
O11          C12   1.268       .  A
C12          O13   1.262       .  A
C12         C589   1.473       .  S
O13         Cr20   1.970       .  S
O14         Cr20   2.023       .  S
O14          C15   1.267       .  A
C15          O16   1.258       .  A
C15         C576   1.478       .  S
O16         Cr21   1.975       .  S
O17         Cr21   2.021       .  S
O17          C18   1.271       .  A
C18         C606   1.489       .  S
Cr19         O22   1.774       .  S
Cr20         O22   1.768       .  S
Cr21         O22   1.766       .  S
O23         Cr41   2.010       .  S
O23          C31   1.265       .  A
O24         Cr41   1.977       .  S
O24          C25   1.259       .  A
C25          O26   1.265       .  A
C25         C529   1.476       .  S
O26         Cr42   1.999       .  S
O27         Cr42   1.960       .  S
O27          C28   1.259       .  A
C28          O29   1.270       .  A
C28         C556   1.469       .  S
O29         Cr43   2.016       .  S
O30         Cr43   1.963       .  S
O30          C31   1.255       .  A
C31         C519   1.484       .  S
O32         Cr41   1.965       .  S
O32          C40   1.259       .  A
O33         Cr41   2.012       .  S
O33          C34   1.269       .  A
C34          O35   1.264       .  A
C34         C596   1.475       .  S
O35         Cr42   1.970       .  S
O36         Cr42   2.018       .  S
O36          C37   1.264       .  A
C37          O38   1.257       .  A
C37         C546   1.473       .  S
O38         Cr43   1.977       .  S
O39         Cr43   2.018       .  S
O39          C40   1.270       .  A
C40         C536   1.486       .  S
Cr41         O44   1.772       .  S
Cr42         O44   1.768       .  S
Cr43         O44   1.764       .  S
O45         Cr63   2.009       .  S
O45          C53   1.265       .  A
O46         Cr63   1.981       .  S
O46          C47   1.261       .  A
C47          O48   1.266       .  A
C47         C496   1.482       .  S
O48         Cr64   2.003       .  S
O49         Cr64   1.958       .  S
O49          C50   1.257       .  A
C50          O51   1.269       .  A
C50         C506   1.468       .  S
O51         Cr65   2.017       .  S
O52         Cr65   1.969       .  S
O52          C53   1.257       .  A
C53         C466   1.484       .  S
O54         Cr63   1.973       .  S
O54          C62   1.261       .  A
O55         Cr63   2.008       .  S
O55          C56   1.266       .  A
C56          O57   1.261       .  A
C56         C559   1.466       .  S
O57         Cr64   1.964       .  S
O58         Cr64   2.018       .  S
O58          C59   1.265       .  A
C59          O60   1.258       .  A
C59         C476   1.474       .  S
O60         Cr65   1.975       .  S
O61         Cr65   2.017       .  S
O61          C62   1.270       .  A
C62         C486   1.489       .  S
Cr63         O66   1.770       .  S
Cr64         O66   1.768       .  S
Cr65         O66   1.763       .  S
O67         Cr85   2.013       .  S
O67          C75   1.266       .  A
O68         Cr85   1.975       .  S
O68          C69   1.261       .  A
C69          O70   1.267       .  A
C69        C1123   1.481       .  S
O70         Cr86   2.007       .  S
O71         Cr86   1.961       .  S
O71          C72   1.259       .  A
C72          O73   1.268       .  A
C72         C456   1.473       .  S
O73         Cr87   2.019       .  S
O74         Cr87   1.969       .  S
O74          C75   1.257       .  A
C75         C439   1.486       .  S
O76         Cr85   1.970       .  S
O76          C84   1.260       .  A
O77         Cr85   2.009       .  S
O77          C78   1.266       .  A
C78          O79   1.262       .  A
C78         C449   1.472       .  S
O79         Cr86   1.970       .  S
O80         Cr86   2.017       .  S
O80          C81   1.267       .  A
C81          O82   1.259       .  A
C81         C549   1.479       .  S
O82         Cr87   1.977       .  S
O83         Cr87   2.017       .  S
O83          C84   1.270       .  A
C84         C489   1.488       .  S
Cr85         O88   1.773       .  S
Cr86         O88   1.767       .  S
Cr87         O88   1.769       .  S
O89        Cr107   2.008       .  S
O89          C97   1.264       .  A
O90        Cr107   1.981       .  S
O90          C91   1.262       .  A
C91          O92   1.265       .  A
C91         C409   1.480       .  S
O92        Cr108   2.000       .  S
O93        Cr108   1.962       .  S
O93          C94   1.259       .  A
C94          O95   1.269       .  A
C94         C429   1.472       .  S
O95        Cr733   2.017       .  S
O96        Cr733   1.973       .  S
O96          C97   1.258       .  A
C97         C436   1.486       .  S
O98        Cr731   1.969       .  S
O98         C106   1.260       .  A
O99        Cr731   2.005       .  S
O99         C100   1.266       .  A
C100        O101   1.262       .  A
C100        C419   1.467       .  S
O101       Cr732   1.970   1_554  S
O102       Cr732   2.011   1_554  S
O102        C103   1.264       .  A
C103        O104   1.258       .  A
C103        C389   1.472       .  S
O104       Cr109   1.980       .  S
O105       Cr109   2.017       .  S
O105        C106   1.270       .  A
C106        C396   1.487       .  S
Cr107       O722   1.969       .  S
Cr107       O723   2.005       .  S
Cr107       O110   1.772       .  S
Cr108       O725   1.970       .  S
Cr108       O726   2.011       .  S
Cr108       O110   1.769       .  S
Cr109       O719   2.017       .  S
Cr109       O720   1.973       .  S
Cr109       O734   1.765       .  S
O110       Cr733   1.765       .  S
O111       Cr129   2.012       .  S
O111        C119   1.266       .  A
O112       Cr129   1.977       .  S
O112        C113   1.259       .  A
C113        O114   1.263       .  A
C113       C1000   1.477   1_554  S
O114       Cr130   1.997       .  S
O115       Cr130   1.962       .  S
O115        C116   1.260       .  A
C116        O117   1.270       .  A
C116        C416   1.474       .  S
O117       Cr131   2.020       .  S
O118       Cr131   1.965       .  S
O118        C119   1.257       .  A
C119        C346   1.485       .  S
O120       Cr129   1.964       .  S
O120        C128   1.258       .  A
O121       Cr129   2.012       .  S
O121        C122   1.269       .  A
C122        O123   1.261       .  A
C122        C509   1.468       .  S
O123       Cr130   1.962       .  S
O124       Cr130   2.009       .  S
O124        C125   1.262       .  A
C125        O126   1.258       .  A
C125        C359   1.470       .  S
O126       Cr131   1.978       .  S
O127       Cr131   2.020       .  S
O127        C128   1.270       .  A
C128        C366   1.488       .  S
Cr129       O132   1.771       .  S
Cr130       O132   1.766       .  S
Cr131       O132   1.762       .  S
O133       Cr151   2.014       .  S
O133        C141   1.265       .  A
O134       Cr151   1.970       .  S
O134        C135   1.259       .  A
C135        O136   1.267       .  A
C135        C336   1.479       .  S
O136       Cr152   2.007       .  S
O137       Cr152   1.965       .  S
O137        C138   1.259       .  A
C138        O139   1.271       .  A
C138        C586   1.478       .  S
O139       Cr153   2.022       .  S
O140       Cr153   1.969       .  S
O140        C141   1.257       .  A
C141        C309   1.483       .  S
O142       Cr151   1.959       .  S
O142        C150   1.258       .  A
O143       Cr151   2.010       .  S
O143        C144   1.267       .  A
C144        O145   1.261       .  A
C144        C426   1.470       .  S
O145       Cr152   1.968       .  S
O146       Cr152   2.020       .  S
O146        C147   1.266       .  A
C147        O148   1.258       .  A
C147        C319   1.475       .  S
O148       Cr153   1.975       .  S
O149       Cr153   2.026       .  S
O149        C150   1.272       .  A
C150        C950   1.488       .  S
Cr151       O154   1.773       .  S
Cr152       O154   1.768       .  S
Cr153       O154   1.762       .  S
O155       Cr173   2.008       .  S
O155        C163   1.264       .  A
O156       Cr173   1.974       .  S
O156        C157   1.259       .  A
C157        O158   1.264       .  A
C157        C379   1.472       .  S
O158       Cr174   1.997       .  S
O159       Cr174   1.966       .  S
O159        C160   1.260       .  A
C160        O161   1.270       .  A
C160        C446   1.474       .  S
O161       Cr175   2.017       .  S
O162       Cr175   1.973       .  S
O162        C163   1.258       .  A
C163        C306   1.481       .  S
O164       Cr173   1.963       .  S
O164        C172   1.259       .  A
O165       Cr173   2.010       .  S
O165        C166   1.267       .  A
C166        O167   1.262       .  A
C166        C296   1.474       .  S
O167       Cr174   1.972       .  S
O168       Cr174   2.011       .  S
O168        C169   1.262       .  A
C169        O170   1.258       .  A
C169        C479   1.473       .  S
O170       Cr175   1.980       .  S
O171       Cr175   2.017       .  S
O171        C172   1.270       .  A
C172        C369   1.486       .  S
Cr173       O176   1.775       .  S
Cr174       O176   1.772       .  S
Cr175       O176   1.766       .  S
O177       Cr195   2.010       .  S
O177        C185   1.265       .  A
O178       Cr195   1.979       .  S
O178        C179   1.260       .  A
C179        O180   1.264       .  A
C179        C619   1.479       .  S
O180       Cr196   1.998       .  S
O181       Cr196   1.968       .  S
O181        C182   1.260       .  A
C182        O183   1.271       .  A
C182        C289   1.480       .  S
O183       Cr197   2.024       .  S
O184       Cr197   1.968       .  S
O184        C185   1.257       .  A
C185        C469   1.485       .  S
O186       Cr195   1.965       .  S
O186        C194   1.259       .  A
O187       Cr195   2.015       .  S
O187        C188   1.269       .  A
C188        O189   1.262       .  A
C188        C276   1.474       .  S
O189       Cr196   1.970       .  S
O190       Cr196   2.015       .  S
O190        C191   1.264       .  A
C191        O192   1.258       .  A
C191        C316   1.474       .  S
O192       Cr197   1.976       .  S
O193       Cr197   2.024       .  S
O193        C194   1.271       .  A
C194       C1233   1.490   1_554  S
Cr195       O198   1.773       .  S
Cr196       O198   1.769       .  S
Cr197       O198   1.765       .  S
O199       Cr217   2.013       .  S
O199        C207   1.266       .  A
O200       Cr217   1.973       .  S
O200        C201   1.260       .  A
C201        O202   1.267       .  A
C201        C406   1.481       .  S
O202       Cr218   2.007       .  S
O203       Cr218   1.964       .  S
O203        C204   1.260       .  A
C204        O205   1.269       .  A
C204        C299   1.474       .  S
O205       Cr219   2.019       .  S
O206       Cr219   1.971       .  S
O206        C207   1.259       .  A
C207        C566   1.487       .  S
O208       Cr217   1.965       .  S
O208        C216   1.258       .  A
O209       Cr217   2.011       .  S
O209        C210   1.267       .  A
C210        O211   1.260       .  A
C210        C269   1.475       .  S
O211       Cr218   1.967       .  S
O212       Cr218   2.009       .  S
O212        C213   1.264       .  A
C213        O214   1.259       .  A
C213        C356   1.472       .  S
O214       Cr219   1.976       .  S
O215       Cr219   2.018       .  S
O215        C216   1.270       .  A
C216        C399   1.486       .  S
Cr217       O220   1.772       .  S
Cr218       O220   1.768       .  S
Cr219       O220   1.765       .  S
O221       Cr239   2.012       .  S
O221        C229   1.266       .  A
O222       Cr239   1.971       .  S
O222        C223   1.260       .  A
C223        O224   1.267       .  A
C223        C526   1.481       .  S
O224       Cr240   2.009       .  S
O225       Cr240   1.968       .  S
O225        C226   1.261       .  A
C226        O227   1.270       .  A
C226        C279   1.478       .  S
O227       Cr865   2.020   1_554  S
O228       Cr865   1.969   1_554  S
O228        C229   1.257       .  A
C229        C349   1.485       .  S
O230       Cr863   1.961       .  S
O230        C238   1.257       .  A
O231       Cr863   2.010       .  S
O231        C232   1.267       .  A
C232        O857   1.262       .  A
C232        C459   1.472       .  S
O233       Cr240   1.970   1_556  S
O233        C856   1.262       .  A
O234       Cr864   2.020       .  S
O234        C235   1.265       .  A
C235        O236   1.257       .  A
C235        C579   1.476       .  S
O236       Cr241   1.977       .  S
O237       Cr241   2.017       .  S
O237        C238   1.270       .  A
C238        C539   1.484       .  S
Cr239       O854   1.961   1_554  S
Cr239       O855   2.010       .  S
Cr239       O242   1.774   1_554  S
Cr240       O858   2.020   1_554  S
Cr240       O242   1.769   1_554  S
Cr241       O851   2.020       .  S
Cr241       O852   1.969       .  S
Cr241       O866   1.764       .  S
O242       Cr865   1.764       .  S
O243       Cr261   2.010       .  S
O243        C251   1.264       .  A
O244       Cr261   1.978       .  S
O244        C245   1.261       .  A
C245        O246   1.266       .  A
C245        C339   1.474       .  S
O246       Cr262   1.997       .  S
O247       Cr262   1.965       .  S
O247        C248   1.259       .  A
C248        O249   1.267       .  A
C248        C266   1.469       .  S
O249       Cr263   2.015       .  S
O250       Cr263   1.971       .  S
O250        C251   1.258       .  A
C251        C516   1.485       .  S
O252       Cr261   1.970       .  S
O252        C260   1.260       .  A
O253       Cr261   2.010       .  S
O253        C254   1.267       .  A
C254        O255   1.262       .  A
C254        C286   1.474       .  S
O255       Cr262   1.974       .  S
O256       Cr262   2.014       .  S
O256        C257   1.265       .  A
C257        O258   1.259       .  A
C257        C386   1.474       .  S
O258       Cr263   1.974       .  S
O259       Cr263   2.016       .  S
O259        C260   1.270       .  A
C260        C329   1.487       .  S
Cr261       O264   1.775       .  S
Cr262       O264   1.769       .  S
Cr263       O264   1.766       .  S
C265        C266   1.402       .  A
C265        C270   1.401       .  A
C265        H272   1.084       .  S
C266        C267   1.405       .  A
C267        C268   1.392       .  A
C267        F274   1.358       .  S
C268        C269   1.402       .  A
C268        H273   1.084       .  S
C269        C270   1.409       .  A
C270        F271   1.357       .  S
C275        C276   1.402       .  A
C275        C280   1.396       .  A
C275        H282   1.084       .  S
C276        C277   1.406       .  A
C277        C278   1.401       .  A
C277        F284   1.357       .  S
C278        C279   1.405   1_455  A
C278        H283   1.084       .  S
C279        C280   1.409   1_655  A
C280        F281   1.358   1_455  S
C285        C286   1.401       .  A
C285        C290   1.396       .  A
C285        H292   1.084       .  S
C286        C287   1.407       .  A
C287        C288   1.401       .  A
C287        F294   1.357       .  S
C288        C289   1.405   1_545  A
C288        H293   1.083       .  S
C289        C290   1.410   1_565  A
C290        F291   1.358   1_545  S
C295        C296   1.401       .  A
C295        C300   1.394   1_655  A
C295        H302   1.084       .  S
C296        C297   1.408       .  A
C297        C298   1.401       .  A
C297        F304   1.358       .  S
C298        C299   1.403   1_655  A
C298        H303   1.083       .  S
C299        C300   1.408       .  A
C300        F301   1.358       .  S
C305        C306   1.407       .  A
C305        C310   1.403       .  A
C305        H312   1.083       .  S
C306        C307   1.406       .  A
C307        C308   1.396       .  A
C307        F314   1.358       .  S
C308        C309   1.406       .  A
C308        H313   1.083       .  S
C309        C310   1.408       .  A
C310        F311   1.357       .  S
C315        C316   1.402   1_556  A
C315        C944   1.399       .  A
C315        H322   1.084       .  S
C316        C317   1.409   1_565  A
C317        C318   1.399       .  A
C317        F324   1.358       .  S
C318        C943   1.402   1_554  A
C318        H323   1.084       .  S
C319        C320   1.409   1_545  A
C319        C942   1.402       .  A
C320        C939   1.399       .  A
C320        F321   1.358       .  S
C325        C326   1.409       .  A
C325        C330   1.398       .  A
C325        H332   1.083       .  S
C326        C774   1.488   1_554  S
C326        C327   1.407       .  A
C327        C328   1.401       .  A
C327        F334   1.357       .  S
C328        C329   1.409       .  A
C328        H333   1.083       .  S
C329        C330   1.407       .  A
C330        F331   1.358       .  S
C335        C336   1.408       .  A
C335        C340   1.399       .  A
C335        H342   1.083       .  S
C336        C337   1.407       .  A
C337        C338   1.392       .  A
C337        F344   1.358       .  S
C338        C339   1.404       .  A
C338        H343   1.083       .  S
C339        C340   1.406       .  A
C340        F341   1.357       .  S
C345        C346   1.407       .  A
C345        C350   1.395       .  A
C345        H352   1.083       .  S
C346        C347   1.409       .  A
C347        C348   1.402       .  A
C347        F354   1.357       .  S
C348        C349   1.407       .  A
C348        H977   1.082       .  S
C349        C350   1.409       .  A
C350        F351   1.358       .  S
H353        C972   1.082       .  S
C355        C356   1.401       .  A
C355        C360   1.397       .  A
C355        H362   1.084       .  S
C356        C357   1.410       .  A
C357        C358   1.398   1_455  A
C357        F364   1.357   1_455  S
C358        C359   1.399       .  A
C358        H363   1.083       .  S
C359        C360   1.409   1_655  A
C360        F361   1.357       .  S
C365        C366   1.410       .  A
C365        C370   1.399       .  A
C365        H372   1.084       .  S
C366        C367   1.407       .  A
C367        C368   1.398       .  A
C367        F374   1.357       .  S
C368        C369   1.408       .  A
C368        H373   1.084       .  S
C369        C370   1.408       .  A
C370        F371   1.358       .  S
C375        C376   1.407       .  A
C375        C380   1.399       .  A
C375        H382   1.083       .  S
C376        C737   1.477       .  S
C376        C377   1.409       .  A
C377        C378   1.391       .  A
C377        F384   1.358       .  S
C378        C379   1.402       .  A
C378        H383   1.083       .  S
C379        C380   1.406       .  A
C380        F381   1.357       .  S
C385        C386   1.408       .  A
C385        C390   1.401       .  A
C385        H392   1.084       .  S
C386        C387   1.403       .  A
C387        C388   1.397       .  A
C387        F394   1.358       .  S
C388        C389   1.406       .  A
C388        H393   1.084       .  S
C389        C390   1.403       .  A
C390        F391   1.357       .  S
C395        C396   1.405       .  A
C395        C400   1.398       .  A
C395        H402   1.083       .  S
C396        C397   1.412       .  A
C397        C398   1.399       .  A
C397        F404   1.357       .  S
C398        C399   1.405       .  A
C398        H403   1.083       .  S
C399        C400   1.411       .  A
C400        F401   1.358       .  S
C405        C406   1.405       .  A
C405        C410   1.395       .  A
C405        H412   1.084       .  S
C406        C407   1.409       .  A
C407        C408   1.399       .  A
C407        F414   1.357       .  S
C408        C409   1.405       .  A
C408        H413   1.083       .  S
C409        C410   1.409       .  A
C410        F411   1.358       .  S
C415        C416   1.406   1_455  A
C415        C420   1.393       .  A
C415       H1046   1.083   1_455  S
C416        C417   1.407   1_655  A
C417        C418   1.399       .  A
C417        F424   1.357       .  S
C418        C419   1.404       .  A
C418        H423   1.083       .  S
C419        C420   1.401       .  A
C420       F1045   1.358       .  S
F421       C1044   1.358       .  S
H422       C1039   1.083   1_655  S
C425        C426   1.405       .  A
C425        C430   1.400       .  A
C425        H432   1.083       .  S
C426        C427   1.403       .  A
C427        C428   1.393       .  A
C427        F434   1.358       .  S
C428        C429   1.405       .  A
C428        H433   1.083       .  S
C429        C430   1.406       .  A
C430        F431   1.357       .  S
C435        C436   1.405       .  A
C435        C440   1.396       .  A
C435        H442   1.083       .  S
C436        C437   1.410       .  A
C437        C438   1.401       .  A
C437        F444   1.357       .  S
C438        C439   1.406       .  A
C438        H443   1.083       .  S
C439        C440   1.410       .  A
C440        F441   1.358       .  S
C445        C446   1.404   1_565  A
C445        C450   1.399       .  A
C445        H452   1.083       .  S
C446        C447   1.408       .  A
C447        C448   1.395   1_545  A
C447        F454   1.358       .  S
C448        C449   1.402       .  A
C448        H453   1.084       .  S
C449        C450   1.406       .  A
C450        F451   1.357       .  S
C455        C456   1.404       .  A
C455       C1084   1.392       .  A
C455       H1086   1.083       .  S
C456        C457   1.406       .  A
C457        C458   1.402       .  A
C457        F464   1.358       .  S
C458        C459   1.406       .  A
C458        H463   1.083       .  S
C459       C1084   1.402       .  A
C460       C1079   1.392       .  A
C460       C1083   1.402       .  A
C460        F461   1.358       .  S
H462       C1079   1.083       .  S
C465        C466   1.406       .  A
C465        C470   1.400       .  A
C465        H472   1.083       .  S
C466        C467   1.409       .  A
C467        C468   1.396       .  A
C467        F474   1.358       .  S
C468        C469   1.406       .  A
C468        H473   1.083       .  S
C469        C470   1.409       .  A
C470        F471   1.357       .  S
C475        C476   1.402       .  A
C475        C480   1.399       .  A
C475        H482   1.084       .  S
C476        C477   1.409   1_565  A
C477        C478   1.399       .  A
C477        F484   1.357       .  S
C478        C479   1.401       .  A
C478        H483   1.084       .  S
C479        C480   1.408   1_545  A
C480        F481   1.358       .  S
C485        C486   1.406       .  A
C485        C490   1.399       .  A
C485        H492   1.083       .  S
C486        C487   1.411       .  A
C487        C488   1.400       .  A
C487        F494   1.357       .  S
C488        C489   1.405       .  A
C488        H493   1.083       .  S
C489        C490   1.411       .  A
C490        F491   1.357       .  S
C495        C496   1.406       .  A
C495        C500   1.399       .  A
C495        H502   1.083       .  S
C496        C497   1.409       .  A
C497        C498   1.395       .  A
C497        F504   1.358       .  S
C498        C499   1.405       .  A
C498        H503   1.083       .  S
C499        C693   1.481   1_554  S
C499        C500   1.409       .  A
C500        F501   1.357       .  S
C505        C506   1.403   1_545  A
C505        C510   1.399       .  A
C505        H512   1.083       .  S
C506        C507   1.407   1_565  A
C507        C508   1.391       .  A
C507        F514   1.358   1_545  S
C508        C509   1.401       .  A
C508        H513   1.084       .  S
C509        C510   1.407       .  A
C510        F511   1.357       .  S
C515        C516   1.405       .  A
C515        C520   1.395       .  A
C515        H522   1.083       .  S
C516        C517   1.410       .  A
C517        C518   1.401       .  A
C517        F524   1.357       .  S
C518        C519   1.406       .  A
C518        H523   1.083       .  S
C519        C520   1.410       .  A
C520        F521   1.358       .  S
C525        C526   1.408       .  A
C525        C530   1.399       .  A
C525        H532   1.082       .  S
C526        C527   1.408       .  A
C527        C528   1.394       .  A
C527        F534   1.358       .  S
C528        C529   1.404       .  A
C528        H533   1.083       .  S
C529        C530   1.406       .  A
C530        F531   1.358       .  S
C535        C536   1.405       .  A
C535        C540   1.399       .  A
C535        H542   1.083       .  S
C536        C537   1.412       .  A
C537        C538   1.397       .  A
C537        F544   1.357       .  S
C538        C539   1.403       .  A
C538        H543   1.083       .  S
C539        C540   1.412       .  A
C540        F541   1.358       .  S
C545        C546   1.407       .  A
C545        C550   1.400       .  A
C545        H552   1.084       .  S
C546        C547   1.402       .  A
C547        C548   1.400       .  A
C547        F554   1.357       .  S
C548        C549   1.408       .  A
C548        H553   1.084       .  S
C549        C550   1.406       .  A
C550        F551   1.358       .  S
C555        C556   1.404       .  A
C555        C560   1.392       .  A
C555        H562   1.084       .  S
C556        C557   1.405       .  A
C557        C558   1.399       .  A
C557        F564   1.357       .  S
C558        C559   1.404       .  A
C558        H563   1.083       .  S
C559        C560   1.403       .  A
C560        F561   1.358       .  S
C565        C566   1.406       .  A
C565        C570   1.396       .  A
C565        H572   1.082       .  S
C566        C567   1.410       .  A
C567        C568   1.402       .  A
C567        F574   1.357       .  S
C568        C569   1.407       .  A
C568        H573   1.082       .  S
C569        C570   1.410       .  A
C570        F571   1.358       .  S
C575        C576   1.408       .  A
C575        C580   1.402   1_455  A
C575        H582   1.083       .  S
C576        C577   1.405       .  A
C577        C578   1.400       .  A
C577        F584   1.358       .  S
C578        C579   1.406   1_455  A
C578        H583   1.083       .  S
C579        C580   1.404       .  A
C580        F581   1.357       .  S
C585        C586   1.405   1_565  A
C585        C590   1.401       .  A
C585        H592   1.083       .  S
C586        C587   1.410       .  A
C587        C588   1.395   1_545  A
C587        F594   1.358       .  S
C588        C589   1.401       .  A
C588        H593   1.084       .  S
C589        C590   1.406       .  A
C590        F591   1.357       .  S
C595        C596   1.401       .  A
C595        C600   1.393   1_655  A
C595        H602   1.083       .  S
C596        C597   1.409       .  A
C597        C598   1.401       .  A
C597        F604   1.357       .  S
C598        C599   1.402   1_655  A
C598        H603   1.083       .  S
C599        C600   1.407       .  A
C600        F601   1.358       .  S
C605        C606   1.410       .  A
C605        C610   1.401       .  A
C605        H612   1.083       .  S
C606        C607   1.407       .  A
C607        C608   1.399       .  A
C607        F614   1.357       .  S
C608        C609   1.409       .  A
C608        H613   1.083       .  S
C609        C818   1.490       .  S
C609        C610   1.408       .  A
C610        F611   1.357       .  S
C615        C616   1.403       .  A
C615        C620   1.392       .  A
C615        H622   1.083       .  S
C616        C617   1.409       .  A
C617        C618   1.400       .  A
C617        F624   1.358       .  S
C618        C619   1.406       .  A
C618        H623   1.083       .  S
C619        C620   1.408       .  A
C620        F621   1.358       .  S
O625       Cr643   2.015       .  S
O625        C633   1.267       .  A
O626       Cr643   1.972       .  S
O626        C627   1.259       .  A
C627        O628   1.267       .  A
C627       C1240   1.478       .  S
O628       Cr644   2.005       .  S
O629       Cr644   1.961       .  S
O629        C630   1.258       .  A
C630        O631   1.269       .  A
C630       C1223   1.472       .  S
O631       Cr645   2.022       .  S
O632       Cr645   1.968       .  S
O632        C633   1.257       .  A
C633       C1193   1.487       .  S
O634       Cr643   1.967       .  S
O634        C642   1.259       .  A
O635       Cr643   2.013       .  S
O635        C636   1.268       .  A
C636        O637   1.262       .  A
C636       C1213   1.473       .  S
O637       Cr644   1.970       .  S
O638       Cr644   2.023       .  S
O638        C639   1.267       .  A
C639        O640   1.258       .  A
C639       C1200   1.478       .  S
O640       Cr645   1.975       .  S
O641       Cr645   2.021       .  S
O641        C642   1.271       .  A
C642       C1230   1.489       .  S
Cr643       O646   1.774       .  S
Cr644       O646   1.768       .  S
Cr645       O646   1.766       .  S
O647       Cr665   2.010       .  S
O647        C655   1.265       .  A
O648       Cr665   1.977       .  S
O648        C649   1.259       .  A
C649        O650   1.265       .  A
C649       C1153   1.476       .  S
O650       Cr666   1.999       .  S
O651       Cr666   1.960       .  S
O651        C652   1.259       .  A
C652        O653   1.270       .  A
C652       C1180   1.469       .  S
O653       Cr667   2.016       .  S
O654       Cr667   1.963       .  S
O654        C655   1.255       .  A
C655       C1143   1.484       .  S
O656       Cr665   1.965       .  S
O656        C664   1.259       .  A
O657       Cr665   2.012       .  S
O657        C658   1.269       .  A
C658        O659   1.264       .  A
C658       C1220   1.475       .  S
O659       Cr666   1.970       .  S
O660       Cr666   2.018       .  S
O660        C661   1.264       .  A
C661        O662   1.257       .  A
C661       C1170   1.473       .  S
O662       Cr667   1.977       .  S
O663       Cr667   2.018       .  S
O663        C664   1.270       .  A
C664       C1160   1.486       .  S
Cr665       O668   1.772       .  S
Cr666       O668   1.768       .  S
Cr667       O668   1.764       .  S
O669       Cr687   2.009       .  S
O669        C677   1.265       .  A
O670       Cr687   1.981       .  S
O670        C671   1.261       .  A
C671        O672   1.266       .  A
C671       C1120   1.482       .  S
O672       Cr688   2.003       .  S
O673       Cr688   1.958       .  S
O673        C674   1.257       .  A
C674        O675   1.269       .  A
C674       C1130   1.468       .  S
O675       Cr689   2.017       .  S
O676       Cr689   1.969       .  S
O676        C677   1.257       .  A
C677       C1090   1.484       .  S
O678       Cr687   1.973       .  S
O678        C686   1.261       .  A
O679       Cr687   2.008       .  S
O679        C680   1.266       .  A
C680        O681   1.261       .  A
C680       C1183   1.466       .  S
O681       Cr688   1.964       .  S
O682       Cr688   2.018       .  S
O682        C683   1.265       .  A
C683        O684   1.258       .  A
C683       C1100   1.474       .  S
O684       Cr689   1.975       .  S
O685       Cr689   2.017       .  S
O685        C686   1.270       .  A
C686       C1110   1.489       .  S
Cr687       O690   1.770       .  S
Cr688       O690   1.768       .  S
Cr689       O690   1.763       .  S
O691       Cr709   2.013       .  S
O691        C699   1.266       .  A
O692       Cr709   1.975       .  S
O692        C693   1.261       .  A
C693        O694   1.267       .  A
O694       Cr710   2.007       .  S
O695       Cr710   1.961       .  S
O695        C696   1.259       .  A
C696        O697   1.268       .  A
C696       C1080   1.473       .  S
O697       Cr711   2.019       .  S
O698       Cr711   1.969       .  S
O698        C699   1.257       .  A
C699       C1063   1.486       .  S
O700       Cr709   1.970       .  S
O700        C708   1.260       .  A
O701       Cr709   2.009       .  S
O701        C702   1.266       .  A
C702        O703   1.262       .  A
C702       C1073   1.472       .  S
O703       Cr710   1.970       .  S
O704       Cr710   2.018       .  S
O704        C705   1.267       .  A
C705        O706   1.259       .  A
C705       C1173   1.479       .  S
O706       Cr711   1.977       .  S
O707       Cr711   2.017       .  S
O707        C708   1.270       .  A
C708       C1113   1.488       .  S
Cr709       O712   1.773       .  S
Cr710       O712   1.767       .  S
Cr711       O712   1.769       .  S
O713       Cr731   2.008       .  S
O713        C721   1.264   1_554  A
O714       Cr731   1.981   1_556  S
O714        C715   1.262       .  A
C715        O716   1.265       .  A
C715       C1033   1.480       .  S
O716       Cr732   2.000       .  S
O717       Cr732   1.962       .  S
O717        C718   1.259       .  A
C718        O719   1.269   1_556  A
C718       C1053   1.472       .  S
O720        C721   1.258   1_554  A
C721       C1060   1.486       .  S
O722        C730   1.260       .  A
O723        C724   1.266       .  A
C724        O725   1.262       .  A
C724       C1043   1.467       .  S
O726        C727   1.264       .  A
C727        O728   1.258       .  A
C727       C1013   1.472       .  S
O728       Cr733   1.980       .  S
O729       Cr733   2.017       .  S
O729        C730   1.270       .  A
C730       C1020   1.487       .  S
Cr731       O734   1.772       .  S
Cr732       O734   1.769   1_556  S
O735       Cr753   2.012       .  S
O735        C743   1.266       .  A
O736       Cr753   1.977       .  S
O736        C737   1.259       .  A
C737        O738   1.263       .  A
O738       Cr754   1.997       .  S
O739       Cr754   1.962       .  S
O739        C740   1.260       .  A
C740        O741   1.270       .  A
C740       C1040   1.474       .  S
O741       Cr755   2.020       .  S
O742       Cr755   1.965       .  S
O742        C743   1.257       .  A
C743        C970   1.485       .  S
O744       Cr753   1.964       .  S
O744        C752   1.258       .  A
O745       Cr753   2.012       .  S
O745        C746   1.269       .  A
C746        O747   1.261       .  A
C746       C1133   1.468       .  S
O747       Cr754   1.962       .  S
O748       Cr754   2.009       .  S
O748        C749   1.262       .  A
C749        O750   1.258       .  A
C749        C983   1.470       .  S
O750       Cr755   1.978       .  S
O751       Cr755   2.020       .  S
O751        C752   1.270       .  A
C752        C990   1.488       .  S
Cr753       O756   1.771       .  S
Cr754       O756   1.766       .  S
Cr755       O756   1.762       .  S
O757       Cr775   2.014       .  S
O757        C765   1.265       .  A
O758       Cr775   1.970       .  S
O758        C759   1.259       .  A
C759        O760   1.267       .  A
C759        C960   1.479       .  S
O760       Cr776   2.007       .  S
O761       Cr776   1.965       .  S
O761        C762   1.259       .  A
C762        O763   1.271       .  A
C762       C1210   1.478       .  S
O763       Cr777   2.022       .  S
O764       Cr777   1.969       .  S
O764        C765   1.257       .  A
C765        C933   1.483       .  S
O766       Cr775   1.959       .  S
O766        C774   1.258       .  A
O767       Cr775   2.010       .  S
O767        C768   1.267       .  A
C768        O769   1.261       .  A
C768       C1050   1.470       .  S
O769       Cr776   1.968       .  S
O770       Cr776   2.020       .  S
O770        C771   1.266       .  A
C771        O772   1.258       .  A
C771        C943   1.475       .  S
O772       Cr777   1.975       .  S
O773       Cr777   2.026       .  S
O773        C774   1.272       .  A
Cr775       O778   1.773       .  S
Cr776       O778   1.768       .  S
Cr777       O778   1.762       .  S
O779       Cr797   2.008       .  S
O779        C787   1.264       .  A
O780       Cr797   1.974       .  S
O780        C781   1.259       .  A
C781        O782   1.264       .  A
C781       C1003   1.472       .  S
O782       Cr798   1.997       .  S
O783       Cr798   1.966       .  S
O783        C784   1.260       .  A
C784        O785   1.270       .  A
C784       C1070   1.474       .  S
O785       Cr799   2.017       .  S
O786       Cr799   1.973       .  S
O786        C787   1.258       .  A
C787        C930   1.481       .  S
O788       Cr797   1.963       .  S
O788        C796   1.259       .  A
O789       Cr797   2.010       .  S
O789        C790   1.267       .  A
C790        O791   1.262       .  A
C790        C920   1.474       .  S
O791       Cr798   1.972       .  S
O792       Cr798   2.011       .  S
O792        C793   1.262       .  A
C793        O794   1.258       .  A
C793       C1103   1.473       .  S
O794       Cr799   1.980       .  S
O795       Cr799   2.017       .  S
O795        C796   1.270       .  A
C796        C993   1.486       .  S
Cr797       O800   1.775       .  S
Cr798       O800   1.772       .  S
Cr799       O800   1.766       .  S
O801       Cr819   2.010       .  S
O801        C809   1.265       .  A
O802       Cr819   1.979       .  S
O802        C803   1.260       .  A
C803        O804   1.264       .  A
C803       C1243   1.479       .  S
O804       Cr820   1.998       .  S
O805       Cr820   1.968       .  S
O805        C806   1.260       .  A
C806        O807   1.271       .  A
C806        C913   1.480       .  S
O807       Cr821   2.024       .  S
O808       Cr821   1.968       .  S
O808        C809   1.257       .  A
C809       C1093   1.485       .  S
O810       Cr819   1.965       .  S
O810        C818   1.259       .  A
O811       Cr819   2.015       .  S
O811        C812   1.269       .  A
C812        O813   1.262       .  A
C812        C900   1.474       .  S
O813       Cr820   1.970       .  S
O814       Cr820   2.015       .  S
O814        C815   1.264       .  A
C815        O816   1.258       .  A
C815        C940   1.474       .  S
O816       Cr821   1.976       .  S
O817       Cr821   2.024       .  S
O817        C818   1.271       .  A
Cr819       O822   1.773       .  S
Cr820       O822   1.769       .  S
Cr821       O822   1.765       .  S
O823       Cr841   2.013       .  S
O823        C831   1.266       .  A
O824       Cr841   1.973       .  S
O824        C825   1.260       .  A
C825        O826   1.267       .  A
C825       C1030   1.481       .  S
O826       Cr842   2.007       .  S
O827       Cr842   1.964       .  S
O827        C828   1.260       .  A
C828        O829   1.269       .  A
C828        C923   1.474       .  S
O829       Cr843   2.019       .  S
O830       Cr843   1.971       .  S
O830        C831   1.259       .  A
C831       C1190   1.487       .  S
O832       Cr841   1.965       .  S
O832        C840   1.258       .  A
O833       Cr841   2.011       .  S
O833        C834   1.267       .  A
C834        O835   1.260       .  A
C834        C893   1.475       .  S
O835       Cr842   1.967       .  S
O836       Cr842   2.009       .  S
O836        C837   1.264       .  A
C837        O838   1.259       .  A
C837        C980   1.472       .  S
O838       Cr843   1.976       .  S
O839       Cr843   2.018       .  S
O839        C840   1.270       .  A
C840       C1023   1.486       .  S
Cr841       O844   1.772       .  S
Cr842       O844   1.768       .  S
Cr843       O844   1.765       .  S
O845       Cr863   2.012       .  S
O845        C853   1.266       .  A
O846       Cr863   1.971       .  S
O846        C847   1.260       .  A
C847        O848   1.267       .  A
C847       C1150   1.481       .  S
O848       Cr864   2.009       .  S
O849       Cr864   1.968       .  S
O849        C850   1.261       .  A
C850        O851   1.270       .  A
C850        C903   1.478       .  S
O852        C853   1.257       .  A
C853        C973   1.485       .  S
O854        C862   1.257       .  A
O855        C856   1.267   1_554  A
C856       C1083   1.472       .  S
O857       Cr864   1.970       .  S
O858        C859   1.265       .  A
C859        O860   1.257       .  A
C859       C1203   1.476       .  S
O860       Cr865   1.977       .  S
O861       Cr865   2.017       .  S
O861        C862   1.270       .  A
C862       C1163   1.484       .  S
Cr863       O866   1.774       .  S
Cr864       O866   1.769       .  S
O867       Cr885   2.010       .  S
O867        C875   1.264       .  A
O868       Cr885   1.978       .  S
O868        C869   1.261       .  A
C869        O870   1.266       .  A
C869        C963   1.474       .  S
O870       Cr886   1.997       .  S
O871       Cr886   1.965       .  S
O871        C872   1.259       .  A
C872        O873   1.267       .  A
C872        C890   1.469       .  S
O873       Cr887   2.015       .  S
O874       Cr887   1.971       .  S
O874        C875   1.258       .  A
C875       C1140   1.485       .  S
O876       Cr885   1.970       .  S
O876        C884   1.260       .  A
O877       Cr885   2.010       .  S
O877        C878   1.267       .  A
C878        O879   1.262       .  A
C878        C910   1.474       .  S
O879       Cr886   1.974       .  S
O880       Cr886   2.014       .  S
O880        C881   1.265       .  A
C881        O882   1.259       .  A
C881       C1010   1.474       .  S
O882       Cr887   1.974       .  S
O883       Cr887   2.016       .  S
O883        C884   1.270       .  A
C884        C953   1.487       .  S
Cr885       O888   1.775       .  S
Cr886       O888   1.769       .  S
Cr887       O888   1.766       .  S
C889        C890   1.402       .  A
C889        C894   1.401       .  A
C889        H896   1.084       .  S
C890        C891   1.405       .  A
C891        C892   1.392       .  A
C891        F898   1.358       .  S
C892        C893   1.402       .  A
C892        H897   1.084       .  S
C893        C894   1.409       .  A
C894        F895   1.357       .  S
C899        C900   1.402       .  A
C899        C904   1.396       .  A
C899        H906   1.084       .  S
C900        C901   1.406       .  A
C901        C902   1.401       .  A
C901        F908   1.357       .  S
C902        C903   1.405   1_455  A
C902        H907   1.084       .  S
C903        C904   1.409   1_655  A
C904        F905   1.358   1_455  S
C909        C910   1.401       .  A
C909        C914   1.396       .  A
C909        H916   1.084       .  S
C910        C911   1.407       .  A
C911        C912   1.401       .  A
C911        F918   1.357       .  S
C912        C913   1.405   1_545  A
C912        H917   1.083       .  S
C913        C914   1.410   1_565  A
C914        F915   1.358   1_545  S
C919        C920   1.401       .  A
C919        C924   1.394   1_655  A
C919        H926   1.084       .  S
C920        C921   1.408       .  A
C921        C922   1.401       .  A
C921        F928   1.358       .  S
C922        C923   1.403   1_655  A
C922        H927   1.083       .  S
C923        C924   1.408       .  A
C924        F925   1.358       .  S
C929        C930   1.407       .  A
C929        C934   1.403       .  A
C929        H936   1.083       .  S
C930        C931   1.406       .  A
C931        C932   1.396       .  A
C931        F938   1.358       .  S
C932        C933   1.406       .  A
C932        H937   1.083       .  S
C933        C934   1.408       .  A
C934        F935   1.357       .  S
C939        C940   1.402       .  A
C939        H946   1.084       .  S
C940        C941   1.409   1_565  A
C941        C942   1.399       .  A
C941        F948   1.358       .  S
C942        H947   1.084       .  S
C943        C944   1.409   1_545  A
C944        F945   1.358       .  S
C949        C950   1.409       .  A
C949        C954   1.398       .  A
C949        H956   1.083       .  S
C950        C951   1.407       .  A
C951        C952   1.401       .  A
C951        F958   1.357       .  S
C952        C953   1.409       .  A
C952        H957   1.083       .  S
C953        C954   1.407       .  A
C954        F955   1.358       .  S
C959        C960   1.408       .  A
C959        C964   1.399       .  A
C959        H966   1.083       .  S
C960        C961   1.407       .  A
C961        C962   1.392       .  A
C961        F968   1.358       .  S
C962        C963   1.404       .  A
C962        H967   1.083       .  S
C963        C964   1.406       .  A
C964        F965   1.357       .  S
C969        C970   1.407       .  A
C969        C974   1.395       .  A
C969        H976   1.083       .  S
C970        C971   1.409       .  A
C971        C972   1.402       .  A
C971        F978   1.357       .  S
C972        C973   1.407       .  A
C973        C974   1.409       .  A
C974        F975   1.358       .  S
C979        C980   1.401       .  A
C979        C984   1.397       .  A
C979        H986   1.084       .  S
C980        C981   1.410       .  A
C981        C982   1.398   1_455  A
C981        F988   1.357   1_455  S
C982        C983   1.399       .  A
C982        H987   1.083       .  S
C983        C984   1.409   1_655  A
C984        F985   1.357       .  S
C989        C990   1.410       .  A
C989        C994   1.399       .  A
C989        H996   1.084       .  S
C990        C991   1.407       .  A
C991        C992   1.398       .  A
C991        F998   1.357       .  S
C992        C993   1.408       .  A
C992        H997   1.084       .  S
C993        C994   1.408       .  A
C994        F995   1.358       .  S
C999       C1000   1.407       .  A
C999       C1004   1.399       .  A
C999       H1006   1.083       .  S
C1000      C1001   1.409       .  A
C1001      C1002   1.391       .  A
C1001      F1008   1.358       .  S
C1002      C1003   1.402       .  A
C1002      H1007   1.083       .  S
C1003      C1004   1.406       .  A
C1004      F1005   1.357       .  S
C1009      C1010   1.408       .  A
C1009      C1014   1.401       .  A
C1009      H1016   1.084       .  S
C1010      C1011   1.403       .  A
C1011      C1012   1.397       .  A
C1011      F1018   1.358       .  S
C1012      C1013   1.406       .  A
C1012      H1017   1.084       .  S
C1013      C1014   1.403       .  A
C1014      F1015   1.357       .  S
C1019      C1020   1.405       .  A
C1019      C1024   1.398       .  A
C1019      H1026   1.083       .  S
C1020      C1021   1.412       .  A
C1021      C1022   1.399       .  A
C1021      F1028   1.357       .  S
C1022      C1023   1.405       .  A
C1022      H1027   1.083       .  S
C1023      C1024   1.411       .  A
C1024      F1025   1.358       .  S
C1029      C1030   1.405       .  A
C1029      C1034   1.395       .  A
C1029      H1036   1.084       .  S
C1030      C1031   1.409       .  A
C1031      C1032   1.399       .  A
C1031      F1038   1.357       .  S
C1032      C1033   1.405       .  A
C1032      H1037   1.083       .  S
C1033      C1034   1.409       .  A
C1034      F1035   1.358       .  S
C1039      C1040   1.406   1_455  A
C1039      C1044   1.393       .  A
C1040      C1041   1.407   1_655  A
C1041      C1042   1.399       .  A
C1041      F1048   1.357       .  S
C1042      C1043   1.404       .  A
C1042      H1047   1.083       .  S
C1043      C1044   1.401       .  A
C1049      C1050   1.405       .  A
C1049      C1054   1.400       .  A
C1049      H1056   1.083       .  S
C1050      C1051   1.403       .  A
C1051      C1052   1.393       .  A
C1051      F1058   1.358       .  S
C1052      C1053   1.405       .  A
C1052      H1057   1.083       .  S
C1053      C1054   1.406       .  A
C1054      F1055   1.357       .  S
C1059      C1060   1.405       .  A
C1059      C1064   1.396       .  A
C1059      H1066   1.083       .  S
C1060      C1061   1.410       .  A
C1061      C1062   1.401       .  A
C1061      F1068   1.357       .  S
C1062      C1063   1.406       .  A
C1062      H1067   1.083       .  S
C1063      C1064   1.410       .  A
C1064      F1065   1.358       .  S
C1069      C1070   1.404   1_565  A
C1069      C1074   1.399       .  A
C1069      H1076   1.083       .  S
C1070      C1071   1.408       .  A
C1071      C1072   1.395   1_545  A
C1071      F1078   1.358       .  S
C1072      C1073   1.402       .  A
C1072      H1077   1.084       .  S
C1073      C1074   1.406       .  A
C1074      F1075   1.357       .  S
C1079      C1080   1.404       .  A
C1080      C1081   1.406       .  A
C1081      C1082   1.402       .  A
C1081      F1088   1.358       .  S
C1082      C1083   1.406       .  A
C1082      H1087   1.083       .  S
C1084      F1085   1.358       .  S
C1089      C1090   1.406       .  A
C1089      C1094   1.400       .  A
C1089      H1096   1.083       .  S
C1090      C1091   1.409       .  A
C1091      C1092   1.396       .  A
C1091      F1098   1.358       .  S
C1092      C1093   1.406       .  A
C1092      H1097   1.083       .  S
C1093      C1094   1.409       .  A
C1094      F1095   1.357       .  S
C1099      C1100   1.402       .  A
C1099      C1104   1.399       .  A
C1099      H1106   1.084       .  S
C1100      C1101   1.409   1_565  A
C1101      C1102   1.399       .  A
C1101      F1108   1.357       .  S
C1102      C1103   1.401       .  A
C1102      H1107   1.084       .  S
C1103      C1104   1.408   1_545  A
C1104      F1105   1.358       .  S
C1109      C1110   1.406       .  A
C1109      C1114   1.399       .  A
C1109      H1116   1.083       .  S
C1110      C1111   1.411       .  A
C1111      C1112   1.400       .  A
C1111      F1118   1.357       .  S
C1112      C1113   1.405       .  A
C1112      H1117   1.083       .  S
C1113      C1114   1.411       .  A
C1114      F1115   1.357       .  S
C1119      C1120   1.406       .  A
C1119      C1124   1.399       .  A
C1119      H1126   1.083       .  S
C1120      C1121   1.409       .  A
C1121      C1122   1.395       .  A
C1121      F1128   1.358       .  S
C1122      C1123   1.405       .  A
C1122      H1127   1.083       .  S
C1123      C1124   1.409       .  A
C1124      F1125   1.357       .  S
C1129      C1130   1.403   1_545  A
C1129      C1134   1.399       .  A
C1129      H1136   1.083       .  S
C1130      C1131   1.407   1_565  A
C1131      C1132   1.391       .  A
C1131      F1138   1.358   1_545  S
C1132      C1133   1.401       .  A
C1132      H1137   1.084       .  S
C1133      C1134   1.407       .  A
C1134      F1135   1.357       .  S
C1139      C1140   1.405       .  A
C1139      C1144   1.395       .  A
C1139      H1146   1.083       .  S
C1140      C1141   1.410       .  A
C1141      C1142   1.401       .  A
C1141      F1148   1.357       .  S
C1142      C1143   1.406       .  A
C1142      H1147   1.083       .  S
C1143      C1144   1.410       .  A
C1144      F1145   1.358       .  S
C1149      C1150   1.408       .  A
C1149      C1154   1.399       .  A
C1149      H1156   1.082       .  S
C1150      C1151   1.408       .  A
C1151      C1152   1.394       .  A
C1151      F1158   1.358       .  S
C1152      C1153   1.404       .  A
C1152      H1157   1.083       .  S
C1153      C1154   1.406       .  A
C1154      F1155   1.358       .  S
C1159      C1160   1.405       .  A
C1159      C1164   1.399       .  A
C1159      H1166   1.083       .  S
C1160      C1161   1.412       .  A
C1161      C1162   1.397       .  A
C1161      F1168   1.357       .  S
C1162      C1163   1.403       .  A
C1162      H1167   1.083       .  S
C1163      C1164   1.412       .  A
C1164      F1165   1.358       .  S
C1169      C1170   1.407       .  A
C1169      C1174   1.400       .  A
C1169      H1176   1.084       .  S
C1170      C1171   1.402       .  A
C1171      C1172   1.400       .  A
C1171      F1178   1.357       .  S
C1172      C1173   1.408       .  A
C1172      H1177   1.084       .  S
C1173      C1174   1.406       .  A
C1174      F1175   1.358       .  S
C1179      C1180   1.404       .  A
C1179      C1184   1.392       .  A
C1179      H1186   1.084       .  S
C1180      C1181   1.405       .  A
C1181      C1182   1.399       .  A
C1181      F1188   1.357       .  S
C1182      C1183   1.404       .  A
C1182      H1187   1.083       .  S
C1183      C1184   1.403       .  A
C1184      F1185   1.358       .  S
C1189      C1190   1.406       .  A
C1189      C1194   1.396       .  A
C1189      H1196   1.082       .  S
C1190      C1191   1.410       .  A
C1191      C1192   1.402       .  A
C1191      F1198   1.357       .  S
C1192      C1193   1.407       .  A
C1192      H1197   1.082       .  S
C1193      C1194   1.410       .  A
C1194      F1195   1.358       .  S
C1199      C1200   1.408       .  A
C1199      C1204   1.402   1_455  A
C1199      H1206   1.083       .  S
C1200      C1201   1.405       .  A
C1201      C1202   1.400       .  A
C1201      F1208   1.358       .  S
C1202      C1203   1.406   1_455  A
C1202      H1207   1.083       .  S
C1203      C1204   1.404       .  A
C1204      F1205   1.357       .  S
C1209      C1210   1.405   1_565  A
C1209      C1214   1.401       .  A
C1209      H1216   1.083       .  S
C1210      C1211   1.410       .  A
C1211      C1212   1.395   1_545  A
C1211      F1218   1.358       .  S
C1212      C1213   1.401       .  A
C1212      H1217   1.084       .  S
C1213      C1214   1.406       .  A
C1214      F1215   1.357       .  S
C1219      C1220   1.401       .  A
C1219      C1224   1.393   1_655  A
C1219      H1226   1.083       .  S
C1220      C1221   1.409       .  A
C1221      C1222   1.401       .  A
C1221      F1228   1.357       .  S
C1222      C1223   1.402   1_655  A
C1222      H1227   1.083       .  S
C1223      C1224   1.407       .  A
C1224      F1225   1.358       .  S
C1229      C1230   1.410       .  A
C1229      C1234   1.401       .  A
C1229      H1236   1.083       .  S
C1230      C1231   1.407       .  A
C1231      C1232   1.399       .  A
C1231      F1238   1.357       .  S
C1232      C1233   1.409       .  A
C1232      H1237   1.083   1_556  S
C1233      C1234   1.408       .  A
C1234      F1235   1.357       .  S
C1239      C1240   1.403       .  A
C1239      C1244   1.392       .  A
C1239      H1246   1.083       .  S
C1240      C1241   1.409       .  A
C1241      C1242   1.400       .  A
C1241      F1248   1.358       .  S
C1242      C1243   1.406       .  A
C1242      H1247   1.083       .  S
C1243      C1244   1.408       .  A
C1244      F1245   1.358       .  S
