geometry optimzed in LAMMPS
_audit_creation_date              2020-11-30 
_audit_creation_method            'lammps2cif' 
_symmetry_space_group_name_H-M    'P1' 
_symmetry_Int_Tables_number       1 
_symmetry_cell_setting            triclinic 
loop_ 
_symmetry_equiv_pos_as_xyz 
  x,y,z 
_cell_length_a                    50.46290093688785 
_cell_length_b                    50.458189792770405 
_cell_length_c                    49.512696187556735 
_cell_angle_alpha                 89.55220189590813 
_cell_angle_beta                  90.73927808729283 
_cell_angle_gamma                 120.33058202938757 
loop_ 
_atom_site_label 
_atom_site_type_symbol 
_atom_site_fract_x 
_atom_site_fract_y 
_atom_site_fract_z 
_atom_site_charge 
Zn1        Zn  0.33461077  0.42166156  0.58594310     1.49720
Zn2        Zn  0.33107706  0.35610311  0.60157748     1.49360
Zn3        Zn  0.36131842  0.41237730  0.63992158     1.49110
Zn4        Zn  0.29182984  0.37698056  0.63381623     1.49480
O5          O  0.32927198  0.39181377  0.61441547    -1.83360
O6          O  0.34636770  0.40814498  0.55034778    -0.73990
O7          O  0.36845762  0.35477207  0.61653203    -0.73810
O8          O  0.38056680  0.45746386  0.63726849    -0.73320
O9          O  0.34125607  0.36310503  0.56266591    -0.74000
O10         O  0.36876239  0.46538379  0.59599286    -0.73600
O11         O  0.39334360  0.40273784  0.63189802    -0.74190
O12         O  0.29678869  0.37642525  0.67469762    -0.73580
O13         O  0.28939586  0.31615376  0.60342184    -0.74330
O14         O  0.34751335  0.40065934  0.67740522    -0.73720
O15         O  0.26183802  0.33511376  0.62051779    -0.74190
O16         O  0.27377113  0.40255937  0.62391531    -0.74100
O17         O  0.29554684  0.42529835  0.58487131    -0.73890
C18         C  0.34790124  0.38404886  0.54519078     0.77900
C19         C  0.39324599  0.37898589  0.62354682     0.78390
C20         C  0.38333313  0.47568379  0.61827716     0.77350
C21         C  0.32145914  0.38737214  0.68866925     0.77730
C22         C  0.26358891  0.31343320  0.60938852     0.78860
C23         C  0.27535855  0.41838372  0.60321921     0.77910
Zn24       Zn  0.36426343  0.32730557  0.36364784     1.49720
Zn25       Zn  0.42361662  0.37309952  0.39790759     1.49360
Zn26       Zn  0.39014818  0.30486825  0.41325969     1.49110
Zn27       Zn  0.42718206  0.32640019  0.35970760     1.49480
O28         O  0.40085168  0.33259295  0.38321627    -1.83360
O29         O  0.36105464  0.36623466  0.36730834    -0.73990
O30         O  0.41311160  0.37478888  0.43677943    -0.73810
O31         O  0.34796336  0.27121494  0.40625219    -0.73320
O32         O  0.40976640  0.39843025  0.37913269    -0.74000
O33         O  0.32639954  0.28747526  0.37603337    -0.73600
O34         O  0.38626286  0.32527641  0.44748592    -0.74190
O35         O  0.43049633  0.29055601  0.37133061    -0.73580
O36         O  0.46868425  0.39321357  0.39072893    -0.74330
O37         O  0.41613879  0.28372708  0.41429255    -0.73720
O38         O  0.46990528  0.36218198  0.35971200    -0.74190
O39         O  0.41216430  0.32142347  0.32178455    -0.74100
O40         O  0.36891818  0.32287388  0.32330878    -0.73890
C41         C  0.38379263  0.39343322  0.37064611     0.77900
C42         C  0.39586077  0.35342939  0.45296973     0.78390
C43         C  0.32487373  0.26687554  0.39222547     0.77350
C44         C  0.42768856  0.27752157  0.39405723     0.77730
C45         C  0.48298234  0.38676993  0.37338963     0.78860
C46         C  0.38956422  0.32129757  0.31001122     0.77910
Zn47       Zn  0.16934247  0.09725311  0.35599205     1.49720
Zn48       Zn  0.19315877  0.07891009  0.40959378     1.49360
Zn49       Zn  0.12685168  0.04609948  0.39413075     1.49110
Zn50       Zn  0.16902008  0.03292275  0.35874937     1.49480
O51         O  0.16591714  0.06431794  0.37887593    -1.83360
O52         O  0.20486569  0.13665670  0.36923003    -0.73990
O53         O  0.17335737  0.05608969  0.44476652    -0.73810
O54         O  0.11011374  0.07368801  0.39379808    -0.73320
O55         O  0.21548797  0.12539412  0.41024933    -0.74000
O56         O  0.13175450  0.10217791  0.35749787    -0.73600
O57         O  0.12497878  0.02950123  0.43099909    -0.74190
O58         O  0.12887045  0.49149219  0.36163556    -0.73580
O59         O  0.22476098  0.06799058  0.40365929    -0.74330
O60         O  0.09912684  0.51053827  0.37241132    -0.73720
O61         O  0.20689172  0.03168719  0.37208750    -0.74190
O62         O  0.17428421  0.04443301  0.31881357    -0.74100
O63         O  0.17515602  0.08893112  0.31737676    -0.73890
C64         C  0.21979671  0.14473421  0.39149481     0.77900
C65         C  0.14548610  0.03549825  0.44884245     0.78390
C66         C  0.11103990  0.09184101  0.37542889     0.77350
C67         C  0.10237972  0.48860058  0.36424256     0.77730
C68         C  0.22734883  0.04856842  0.38952353     0.78860
C69         C  0.17608053  0.06706760  0.30549562     0.77910
Zn70       Zn  0.11069302  0.41602111  0.58578949     1.49720
Zn71       Zn  0.08065444  0.45392204  0.59873396     1.49360
Zn72       Zn  0.07219675  0.40379551  0.63855653     1.49110
Zn73       Zn  0.13799375  0.46619074  0.63463530     1.49480
O74         O  0.10121306  0.43509944  0.61490838    -1.83360
O75         O  0.11398651  0.43764971  0.54943444    -0.73990
O76         O  0.03535600  0.42813951  0.60085683    -0.73810
O77         O  0.07094274  0.36488795  0.63072829    -0.73320
O78         O  0.09342548  0.46576721  0.56084871    -0.74000
O79         O  0.08469723  0.36858283  0.58769969    -0.73600
O80         O  0.02872684  0.39514108  0.63345168    -0.74190
O81         O  0.13206526  0.45623354  0.67520970    -0.73580
O82         O  0.09316232  0.99273375  0.61719918    -0.74330
O83         O  0.08531104  0.41508904  0.67689819    -0.73720
O84         O  0.14125293  0.00877466  0.63082497    -0.74190
O85         O  0.17600781  0.46370183  0.62236843    -0.74100
O86         O  0.15271303  0.42482413  0.59331416    -0.73890
C87         C  0.10708779  0.45823921  0.54388001     0.77900
C88         C  0.01785968  0.40648066  0.61665967     0.78390
C89         C  0.07428070  0.35294860  0.60947381     0.77350
C90         C  0.10948748  0.43570941  0.68870391     0.77730
C91         C  0.11892449  0.01352443  0.62631952     0.78860
C92         C  0.17626378  0.44356098  0.60691166     0.77910
Zn93       Zn  0.02493752  0.16248161  0.60579660     1.49720
Zn94       Zn  0.04788107  0.12958721  0.64549814     1.49360
Zn95       Zn  0.08258226  0.15460327  0.58999684     1.49110
Zn96       Zn  0.08807825  0.19883177  0.63847870     1.49480
O97         O  0.06098935  0.16164932  0.61928598    -1.83360
O98         O  0.48486232  0.12498422  0.61855748    -0.73990
O99         O  0.07312965  0.10931019  0.64292002    -0.73810
O100        O  0.05577441  0.14229687  0.55480514    -0.73320
O101        O  0.50443677  0.09873354  0.63823210    -0.74000
O102        O  0.02102479  0.15465553  0.56666958    -0.73600
O103        O  0.09246520  0.12157601  0.60165488    -0.74190
O104        O  0.13093427  0.21562910  0.62549587    -0.73580
O105        O  0.05069850  0.14475001  0.68330664    -0.74330
O106        O  0.12519481  0.19286917  0.58556559    -0.73720
O107        O  0.08609613  0.19393149  0.67928863    -0.74190
O108        O  0.07601335  0.22994669  0.62952263    -0.74100
O109        O  0.02977829  0.20502854  0.60988116    -0.73890
C110        C  0.48170003  0.10011104  0.62853912     0.77900
C111        C  0.08873804  0.10719881  0.62393176     0.78390
C112        C  0.03231271  0.14494223  0.54925526     0.77350
C113        C  0.14178212  0.21300282  0.60325588     0.77730
C114        C  0.06829402  0.17091171  0.69379268     0.78860
C115        C  0.05288162  0.22973799  0.61871421     0.77910
Zn116      Zn  0.46310702  0.13074962  0.36388738     1.49720
Zn117      Zn  0.39805857  0.06862106  0.35801698     1.49360
Zn118      Zn  0.44392441  0.07104653  0.39835398     1.49110
Zn119      Zn  0.41405784  0.10776652  0.41202154     1.49480
O120        O  0.42958132  0.09562587  0.38251686    -1.83360
O121        O  0.45448910  0.12601048  0.32314999    -0.73990
O122        O  0.39178527  0.02611050  0.35756075    -0.73810
O123        O  0.97910839  0.07923771  0.37685100    -0.73320
O124        O  0.40834540  0.08385605  0.32045194    -0.74000
O125        O  0.00332248  0.12961694  0.37032460    -0.73600
O126        O  0.41492568  0.02543901  0.39569915    -0.74190
O127        O  0.43665715  0.10958911  0.44718335    -0.73580
O128        O  0.35876136  0.06405817  0.36946823    -0.74330
O129        O  0.46072259  0.08490876  0.43578935    -0.73720
O130        O  0.36727761  0.08185650  0.41166824    -0.74190
O131        O  0.42523159  0.15106588  0.40561840    -0.74100
O132        O  0.46360060  0.17008368  0.37614299    -0.73890
C133        C  0.43175060  0.10587291  0.30931387     0.77900
C134        C  0.39834335  0.01183823  0.37512721     0.78390
C135        C  0.00365227  0.10448035  0.37279303     0.77350
C136        C  0.45611948  0.10111976  0.45250823     0.77730
C137        C  0.34904213  0.06800482  0.39178053     0.78860
C138        C  0.44557038  0.17342552  0.39196471     0.77910
Zn139      Zn  0.36598721  0.41441453  0.85418612     1.49720
Zn140      Zn  0.29546943  0.37996251  0.85998655     1.49360
Zn141      Zn  0.33492118  0.35913882  0.89319898     1.49110
Zn142      Zn  0.33713311  0.42366772  0.90777073     1.49480
O143        O  0.33348640  0.39461348  0.87945219    -1.83360
O144        O  0.35019392  0.40423252  0.81678278    -0.73990
O145        O  0.26476059  0.33909589  0.87490895    -0.73810
O146        O  0.36989664  0.35491453  0.87789337    -0.73320
O147        O  0.29953702  0.37743574  0.81941174    -0.74000
O148        O  0.39682638  0.40114604  0.85915671    -0.73600
O149        O  0.29243888  0.32029741  0.89319110    -0.74190
O150        O  0.34865593  0.41041932  0.94441793    -0.73580
O151        O  0.27919112  0.40779693  0.86687534    -0.74330
O152        O  0.34816632  0.36805966  0.93117509    -0.73720
O153        O  0.29810127  0.42785573  0.90731316    -0.74190
O154        O  0.37100255  0.46720662  0.89729451    -0.74100
O155        O  0.38664662  0.45965159  0.85796023    -0.73890
C156        C  0.32395882  0.38972144  0.80547448     0.77900
C157        C  0.26659376  0.31773958  0.88702107     0.78390
C158        C  0.39469930  0.37632314  0.86771962     0.77350
C159        C  0.35322213  0.38792325  0.94912364     0.77730
C160        C  0.27993357  0.42338171  0.88725958     0.78860
C161        C  0.38727217  0.47767286  0.87605461     0.77910
Zn162      Zn  0.37945125  0.29666980  0.13877994     1.49720
Zn163      Zn  0.41692133  0.36551192  0.14554661     1.49360
Zn164      Zn  0.42266603  0.33746687  0.09077522     1.49110
Zn165      Zn  0.35930524  0.33667238  0.10737153     1.49480
O166        O  0.39478974  0.33416694  0.11977328    -1.83360
O167        O  0.37584024  0.30068826  0.17916066    -0.73990
O168        O  0.46202612  0.38384059  0.14179351    -0.73810
O169        O  0.42634360  0.29830598  0.09105612    -0.73320
O170        O  0.40602389  0.35113802  0.18347438    -0.74000
O171        O  0.40748986  0.28102410  0.13203900    -0.73600
O172        O  0.46678317  0.37122187  0.10010239    -0.74190
O173        O  0.36661822  0.34872608  0.06908653    -0.73580
O174        O  0.40753189  0.39800056  0.13732837    -0.74330
O175        O  0.40840022  0.34897271  0.05479379    -0.73720
O176        O  0.35936085  0.37462474  0.12205106    -0.74190
O177        O  0.31933504  0.29424638  0.10788292    -0.74100
O178        O  0.33920707  0.26627677  0.12307668    -0.73890
C179        C  0.38940148  0.32468847  0.19375504     0.77900
C180        C  0.47876491  0.38582483  0.12203196     0.78390
C181        C  0.42256932  0.28111076  0.11158695     0.77350
C182        C  0.38585692  0.35362635  0.05069532     0.77730
C183        C  0.38431543  0.39905314  0.12853070     0.78860
C184        C  0.31729609  0.26824119  0.11227438     0.77910
Zn185      Zn  0.16856295  0.03169001  0.13491286     1.49720
Zn186      Zn  0.16863777  0.09551819  0.13702521     1.49360
Zn187      Zn  0.19347449  0.07880115  0.08473758     1.49110
Zn188      Zn  0.12423096  0.04437986  0.09806971     1.49480
O189        O  0.16437227  0.06269821  0.11413857    -1.83360
O190        O  0.17239437  0.04228272  0.17502090    -0.73990
O191        O  0.20366482  0.13547436  0.12441752    -0.73810
O192        O  0.22650151  0.06936953  0.09262545    -0.73320
O193        O  0.17450357  0.08733084  0.17582957    -0.74000
O194        O  0.20873372  0.03312045  0.12435809    -0.73600
O195        O  0.21489496  0.12591952  0.08351365    -0.74190
O196        O  0.12457266  0.03152959  0.06019842    -0.73580
O197        O  0.13211841  0.10150734  0.13449499    -0.74330
O198        O  0.17389913  0.05532796  0.04962069    -0.73720
O199        O  0.10527737  0.07103578  0.10051039    -0.74190
O200        O  0.09704700  0.50490040  0.11614866    -0.74100
O201        O  0.12915824  0.48930681  0.13030738    -0.73890
C202        C  0.17479578  0.06514252  0.18806412     0.77900
C203        C  0.21834626  0.14469963  0.10236729     0.78390
C204        C  0.22973398  0.05078210  0.10787431     0.77350
C205        C  0.14579897  0.03630362  0.04392229     0.77730
C206        C  0.10994337  0.09171058  0.11761708     0.78860
C207        C  0.10204934  0.48407835  0.12491575     0.77910
Zn208      Zn  0.07390967  0.39893119  0.85606881     1.49720
Zn209      Zn  0.13540687  0.46459258  0.85981310     1.49360
Zn210      Zn  0.07664804  0.44409443  0.89719250     1.49110
Zn211      Zn  0.11763499  0.41748065  0.90919841     1.49480
O212        O  0.10179225  0.43124643  0.88002749    -1.83360
O213        O  0.08786002  0.40869356  0.81768636    -0.73990
O214        O  0.13314783  0.00400963  0.86423927    -0.73810
O215        O  0.03105551  0.41446911  0.89469033    -0.73320
O216        O  0.12909263  0.45534300  0.81951926    -0.74000
O217        O  0.03072576  0.39180811  0.85647317    -0.73600
O218        O  0.08482392  0.98149547  0.87859949    -0.74190
O219        O  0.12050994  0.43960793  0.94474738    -0.73580
O220        O  0.17626072  0.46659523  0.86999753    -0.74330
O221        O  0.08998474  0.45804874  0.93488219    -0.73720
O222        O  0.16095237  0.42975873  0.90121647    -0.74190
O223        O  0.09340754  0.37073528  0.90943624    -0.74100
O224        O  0.07081069  0.35992713  0.86867835    -0.73890
C225        C  0.10920964  0.43226762  0.80598936     0.77900
C226        C  0.10849357  0.00452709  0.86887749     0.78390
C227        C  0.01669612  0.39761009  0.87452968     0.77350
C228        C  0.10866875  0.45590047  0.95087608     0.77730
C229        C  0.18155620  0.44959266  0.88589036     0.78860
C230        C  0.07790012  0.35157687  0.89065761     0.77910
Zn231      Zn  0.09696865  0.16744907  0.86061388     1.49720
Zn232      Zn  0.03257579  0.16650231  0.86308601     1.49360
Zn233      Zn  0.04381378  0.12074106  0.89818020     1.49110
Zn234      Zn  0.07966255  0.18884470  0.91350366     1.49480
O235        O  0.06333124  0.16125021  0.88328391    -1.83360
O236        O  0.08937043  0.17519468  0.82213517    -0.73990
O237        O  0.48939862  0.12832859  0.86722123    -0.73810
O238        O  0.06801718  0.10017109  0.89153657    -0.73320
O239        O  0.04283450  0.16992615  0.82315200    -0.74000
O240        O  0.10186170  0.13041613  0.86076862    -0.73600
O241        O  0.50422763  0.09529090  0.87984900    -0.74190
O242        O  0.05559131  0.16875843  0.94751230    -0.73580
O243        O  0.03546930  0.20700948  0.87432817    -0.74330
O244        O  0.03081476  0.11942700  0.93670643    -0.73720
O245        O  0.07155199  0.22239417  0.90624887    -0.74190
O246        O  0.12640467  0.21029536  0.91608282    -0.74100
O247        O  0.13671346  0.20186787  0.87444900    -0.73890
C248        C  0.06624812  0.17389533  0.81013080     0.77900
C249        C  0.48368873  0.10094973  0.87164827     0.78390
C250        C  0.08902882  0.10582967  0.87459604     0.77350
C251        C  0.03584931  0.14089155  0.95298293     0.77730
C252        C  0.05382153  0.22719764  0.89123685     0.78860
C253        C  0.14541534  0.21541250  0.89714558     0.77910
Zn254      Zn  0.44931711  0.08367733  0.14281312     1.49720
Zn255      Zn  0.41325012  0.11788572  0.13940216     1.49360
Zn256      Zn  0.47289686  0.14156425  0.10497763     1.49110
Zn257      Zn  0.41122436  0.07775964  0.08899238     1.49480
O258        O  0.43656493  0.10509371  0.11855280    -1.83360
O259        O  0.44482280  0.09092752  0.18176041    -0.73990
O260        O  0.42561590  0.16102657  0.12983119    -0.73810
O261        O  0.01253143  0.14384574  0.11776602    -0.73320
O262        O  0.42040135  0.11718348  0.17955162    -0.74000
O263        O  0.49287227  0.09705606  0.13566197    -0.73600
O264        O  0.47047205  0.18047679  0.10894739    -0.74190
O265        O  0.43529161  0.09192981  0.05293391    -0.73580
O266        O  0.36851998  0.09096031  0.13039131    -0.74330
O267        O  0.47533967  0.13639987  0.06593828    -0.73720
O268        O  0.36902148  0.07458367  0.08873674    -0.74190
O269        O  0.40147430  0.03400613  0.09662462    -0.74100
O270        O  0.42569138  0.03887303  0.13578333    -0.73890
C271        C  0.43307034  0.10501898  0.19314483     0.77900
C272        C  0.44869489  0.18332236  0.11851730     0.78390
C273        C  0.01537733  0.12149012  0.12635167     0.77350
C274        C  0.46089107  0.11630381  0.04790365     0.77730
C275        C  0.35468537  0.07749516  0.10860611     0.78860
C276        C  0.40861619  0.02250715  0.11644931     0.77910
C277        C  0.47608507  0.09735203  0.00753005    -0.20540
C278        C  0.47636323  0.12159948  0.02149804    -0.08580
C279        C  0.49624584  0.15190640  0.01271122     0.30280
C280        C  0.01600398  0.15781032  0.99111562    -0.20540
C281        C  0.01647287  0.13375877  0.97745635    -0.08590
C282        C  0.99588593  0.10326985  0.98570380     0.30290
F283        F  0.99518787  0.07915355  0.97306505    -0.19110
H284        H  0.46150222  0.07389313  0.01423548     0.18650
H285        H  0.03078081  0.18142718  0.98490835     0.18660
F286        F  0.49687052  0.17604695  0.02528145    -0.19100
C287        C  0.04499286  0.29653197  0.87726862    -0.20540
C288        C  0.06872099  0.31889662  0.89359787    -0.08580
C289        C  0.08524345  0.31005358  0.91074370     0.30280
C290        C  0.07905141  0.27986390  0.91059938    -0.20540
C291        C  0.05641418  0.25772207  0.89328875    -0.08590
C292        C  0.03878190  0.26618054  0.87710143     0.30290
F293        F  0.51628140  0.24556063  0.86052248    -0.19110
H294        H  0.03172086  0.30273643  0.86402541     0.18650
H295        H  0.09307425  0.27423765  0.92342568     0.18660
F296        F  0.10875832  0.33090038  0.92639523    -0.19100
C297        C  0.13113269  0.06175770  0.86898470    -0.20540
C298        C  0.10610558  0.03211184  0.86433220    -0.08580
C299        C  0.07671435  0.02821335  0.85977088     0.30280
C300        C  0.07191327  0.05273098  0.86270529    -0.20540
C301        C  0.09630272  0.08178270  0.86932186    -0.08590
C302        C  0.12628424  0.08672033  0.87122539     0.30290
F303        F  0.15030622  0.11503113  0.87703837    -0.19110
H304        H  0.15389706  0.06524139  0.87253090     0.18650
H305        H  0.04883831  0.04888221  0.86033663     0.18660
F306        F  0.05216585  0.50026152  0.85368828    -0.19100
C307        C  0.15701539  0.00796004  0.00865100    -0.20540
C308        C  0.13722075  0.01730083  0.01909024    -0.08580
C309        C  0.10760327  0.00497812  0.00774199     0.30280
C310        C  0.09824130  0.48421789  0.98631477    -0.20540
C311        C  0.11784748  0.47465357  0.97590929    -0.08590
C312        C  0.14739631  0.48666161  0.98740727     0.30290
F313        F  0.16737740  0.47866072  0.97760058    -0.19110
H314        H  0.17970094  0.01659432  0.01737778     0.18650
H315        H  0.07552736  0.47570052  0.97768616     0.18660
F316        F  0.08767196  0.01326589  0.01714807    -0.19100
C317        C  0.08709229  0.11882795  0.14174036    -0.20540
C318        C  0.08882864  0.10404621  0.11835488    -0.08580
C319        C  0.06900501  0.09975327  0.09642915     0.30280
C320        C  0.04695791  0.10852620  0.09854352    -0.20540
C321        C  0.04403660  0.12142097  0.12247558    -0.08590
C322        C  0.06454858  0.12708433  0.14395106     0.30290
F323        F  0.06167188  0.13897443  0.16747871    -0.19110
H324        H  0.10209262  0.12250167  0.15889874     0.18650
H325        H  0.03080034  0.10346741  0.08201017     0.18660
F326        F  0.07009441  0.08609237  0.07328677    -0.19100
C327        C  0.30291131  0.05269667  0.12968329    -0.20540
C328        C  0.32127586  0.06561465  0.10673208    -0.08580
C329        C  0.30794292  0.06957872  0.08315800     0.30280
C330        C  0.27741782  0.06278598  0.08325516    -0.20540
C331        C  0.25945470  0.05148560  0.10668676    -0.08590
C332        C  0.27216027  0.04531330  0.12963268     0.30290
F333        F  0.25569688  0.03432121  0.15261635    -0.19110
H334        H  0.31272367  0.04921096  0.14802079     0.18650
H335        H  0.26818638  0.06763858  0.06523426     0.18660
F336        F  0.32503297  0.08226731  0.06073012    -0.19100
C337        C  0.02452874  0.42478800  0.14820034    -0.20540
C338        C  0.01257347  0.40659188  0.12480573    -0.08580
C339        C  0.03297259  0.41044658  0.10392801     0.30280
C340        C  0.06384763  0.43383668  0.10556051    -0.20540
C341        C  0.07487511  0.45346425  0.12800700    -0.08590
C342        C  0.05524196  0.44813660  0.14969225     0.30290
F343        F  0.06507738  0.46735857  0.17125921    -0.19110
H344        H  0.00968455  0.42231426  0.16481382     0.18650
H345        H  0.07854936  0.43818197  0.08834207     0.18660
F346        F  0.02284409  0.39299952  0.08126575    -0.19100
C347        C  0.26895521  0.18727163  0.08685229    -0.20540
C348        C  0.24100695  0.17788300  0.09972542    -0.08580
C349        C  0.23686045  0.20004511  0.11327556     0.30280
C350        C  0.26102680  0.23051996  0.11537426    -0.20540
C351        C  0.28972662  0.23910728  0.10446075    -0.08590
C352        C  0.29324154  0.21747822  0.08948077     0.30290
F353        F  0.32080220  0.22521644  0.07860745    -0.19110
H354        H  0.27277862  0.17071160  0.07642385     0.18650
H355        H  0.25796625  0.24679208  0.12711320     0.18660
F356        F  0.20988409  0.19192994  0.12552146    -0.19100
C357        C  0.36420023  0.43591044  0.12492179    -0.20540
C358        C  0.38852464  0.42990649  0.12379731    -0.08580
C359        C  0.41818435  0.45412573  0.11742690     0.30280
C360        C  0.42371132  0.48376976  0.11399713    -0.20540
C361        C  0.39996410  0.49011079  0.11631641    -0.08590
C362        C  0.36992888  0.46606059  0.12132395     0.30290
F363        F  0.34665305  0.47194468  0.12391832    -0.19110
H364        H  0.34116199  0.41758687  0.12936644     0.18650
H365        H  0.44691536  0.50210337  0.10996682     0.18660
F366        F  0.44209821  0.44924996  0.11430514    -0.19100
C367        C  0.43605517  0.24748100  0.13796420    -0.20540
C368        C  0.43507505  0.26003248  0.11271339    -0.08580
C369        C  0.44374655  0.25025594  0.08958229     0.30280
C370        C  0.45086564  0.22670048  0.09169009    -0.20540
C371        C  0.44923465  0.21270507  0.11676935    -0.08590
C372        C  0.44273407  0.22397511  0.13996389     0.30290
F373        F  0.44142289  0.21118148  0.16451328    -0.19110
H374        H  0.43030415  0.25493641  0.15631926     0.18650
H375        H  0.45559287  0.21800925  0.07354207     0.18660
F376        F  0.44342586  0.26190467  0.06486999    -0.19100
C377        C  0.18542147  0.26786688  0.91089895    -0.20540
C378        C  0.17800894  0.23924493  0.90028950    -0.08580
C379        C  0.20127439  0.23568699  0.88843456     0.30280
C380        C  0.23105121  0.26091426  0.88591117    -0.20540
C381        C  0.23763050  0.29004333  0.89445129    -0.08590
C382        C  0.21485200  0.29319224  0.90766289     0.30290
F383        F  0.22074677  0.32112296  0.91638592    -0.19110
H384        H  0.16781254  0.27118227  0.91982722     0.18650
H385        H  0.24834056  0.25812155  0.87569678     0.18660
F386        F  0.19481801  0.20815213  0.87820051    -0.19100
C387        C  0.41020690  0.03231881  0.89187454    -0.20540
C388        C  0.40784061  0.01129744  0.87212269    -0.08580
C389        C  0.42662408  0.02272864  0.84907295     0.30280
C390        C  0.44894203  0.05373952  0.84725427    -0.20540
C391        C  0.45298864  0.07407503  0.86806063    -0.08590
C392        C  0.43269387  0.06347771  0.88992241     0.30290
F393        F  0.43667847  0.08259730  0.91068755    -0.19110
H394        H  0.39587656  0.02440656  0.90961227     0.18650
H395        H  0.46494254  0.06137412  0.83063546     0.18660
F396        F  0.42511143  0.50376992  0.82906105    -0.19100
C397        C  0.22728821  0.45293961  0.90956489    -0.20540
C398        C  0.21119487  0.45037983  0.88539108    -0.08580
C399        C  0.21992722  0.44194533  0.86170422     0.30280
C400        C  0.24317205  0.43460130  0.86248749    -0.20540
C401        C  0.25842919  0.43557176  0.88688213    -0.08590
C402        C  0.25109351  0.44613446  0.91028874     0.30290
F403        F  0.26559390  0.44823953  0.93412305    -0.19110
H404        H  0.22052984  0.45900597  0.92814255     0.18650
H405        H  0.24835279  0.42690963  0.84397034     0.18660
F406        F  0.20402074  0.43796588  0.83829844    -0.19100
C407        C  0.46397549  0.37427658  0.89358436    -0.20540
C408        C  0.48355498  0.38612671  0.87132557    -0.08580
C409        C  0.47188891  0.39001524  0.84661285     0.30280
C410        C  0.44184458  0.38450960  0.84491597    -0.20540
C411        C  0.42268165  0.37405000  0.86751781    -0.08590
C412        C  0.43354347  0.36772084  0.89159256     0.30290
F413        F  0.41569915  0.35795122  0.91387644    -0.19110
H414        H  0.47258724  0.37110437  0.91277126     0.18650
H415        H  0.43399682  0.38987920  0.82630412     0.18660
F416        F  0.49034728  0.40175454  0.82480396    -0.19100
C417        C  0.38348018  0.36985916  0.97575762    -0.20540
C418        C  0.36516218  0.38374033  0.97545552    -0.08580
C419        C  0.35632872  0.39009855  0.00013508     0.30280
C420        C  0.36410948  0.38103005  0.02440145    -0.20540
C421        C  0.38115968  0.36574264  0.02463914    -0.08590
C422        C  0.39162594  0.36116317  0.00001898     0.30290
F423        F  0.40825975  0.34684735  0.99918250    -0.19110
H424        H  0.39081433  0.36493080  0.95704489     0.18650
H425        H  0.35611796  0.38538309  0.04307880     0.18660
F426        F  0.33861129  0.40325604  0.00080461    -0.19100
C427        C  0.42170359  0.07865123  0.23723582    -0.20540
C428        C  0.43324111  0.10613818  0.22276137    -0.08580
C429        C  0.44481733  0.13402489  0.23677633     0.30280
C430        C  0.44498353  0.13421401  0.26511060    -0.20540
C431        C  0.43267720  0.10650304  0.27956706    -0.08590
C432        C  0.42098608  0.07868622  0.26533607     0.30290
F433        F  0.40946124  0.05149230  0.27863821    -0.19110
H434        H  0.41277822  0.05700107  0.22668508     0.18650
H435        H  0.45417055  0.15583876  0.27572638     0.18660
F436        F  0.45657203  0.16098219  0.22309386    -0.19100
C437        C  0.03982004  0.15819015  0.73707815    -0.20540
C438        C  0.06778873  0.17423144  0.72334802    -0.08580
C439        C  0.09501421  0.19196366  0.73823810     0.30280
C440        C  0.09428497  0.19239627  0.76648275    -0.20540
C441        C  0.06635048  0.17585414  0.78028613    -0.08590
C442        C  0.03896398  0.15926869  0.76524190     0.30290
F443        F  0.01154051  0.14274217  0.77775650    -0.19110
H444        H  0.01856213  0.14450079  0.72594080     0.18650
H445        H  0.11566887  0.20533308  0.77762424     0.18660
F446        F  0.12246620  0.20750876  0.72560943    -0.19100
C447        C  0.49343932  0.09909947  0.48561224    -0.20540
C448        C  0.47536401  0.11192416  0.47755387    -0.08580
C449        C  0.47827299  0.13706966  0.49220384     0.30280
C450        C  0.99817857  0.14851157  0.51445661    -0.20540
C451        C  0.01578085  0.13536932  0.52287392    -0.08590
C452        C  0.01337202  0.11058352  0.50806367     0.30290
F453        F  0.02911389  0.09654823  0.51595569    -0.19110
H454        H  0.49199763  0.07993555  0.47461224     0.18650
H455        H  0.99947220  0.16761222  0.52548080     0.18660
F456        F  0.46234876  0.15111044  0.48485722    -0.19100
C457        C  0.08359335  0.41532059  0.73278956    -0.20540
C458        C  0.11052075  0.43537592  0.71875456    -0.08580
C459        C  0.13740650  0.45448414  0.73379266     0.30280
C460        C  0.13703920  0.45335401  0.76215411    -0.20540
C461        C  0.11002538  0.43306757  0.77601766    -0.08590
C462        C  0.08323322  0.41414166  0.76091173     0.30290
F463        F  0.05623200  0.39504805  0.77324151    -0.19110
H464        H  0.06237967  0.40053528  0.72199071     0.18650
H465        H  0.15796378  0.46825649  0.77328050     0.18660
F466        F  0.16405908  0.47406069  0.72123307    -0.19100
C467        C  0.06503809  0.27935069  0.63855890    -0.20540
C468        C  0.05399746  0.25942987  0.61643244    -0.08580
C469        C  0.04870325  0.27001768  0.59168885     0.30280
C470        C  0.05540722  0.30057425  0.58911902    -0.20540
C471        C  0.06679737  0.32057790  0.61135274    -0.08590
C472        C  0.07113570  0.30941369  0.63623212     0.30290
F473        F  0.08269273  0.32798508  0.65816214    -0.19110
H474        H  0.06968718  0.27176353  0.65765959     0.18650
H475        H  0.05180180  0.30860725  0.56983182     0.18660
F476        F  0.03874884  0.25142015  0.56972376    -0.19100
C477        C  0.10302960  0.04489537  0.65118076    -0.20540
C478        C  0.12139391  0.04336214  0.63098795    -0.08580
C479        C  0.13220833  0.06540813  0.61028026     0.30280
C480        C  0.12273769  0.08715921  0.60873687    -0.20540
C481        C  0.10224345  0.08714621  0.62778549    -0.08590
C482        C  0.09358645  0.06655397  0.64978263     0.30290
F483        F  0.07400899  0.06553232  0.66886336    -0.19110
H484        H  0.09373533  0.02748498  0.66683728     0.18650
H485        H  0.13018925  0.10295802  0.59182397     0.18660
F486        F  0.14932199  0.06390379  0.59007309    -0.19100
C487        C  0.17632340  0.04239254  0.26157983    -0.20540
C488        C  0.17822397  0.06754491  0.27548288    -0.08580
C489        C  0.18056910  0.09235457  0.26025386     0.30280
C490        C  0.18012205  0.09149882  0.23205859    -0.20540
C491        C  0.17731566  0.06602294  0.21810243    -0.08590
C492        C  0.17585767  0.04154171  0.23325732     0.30290
F493        F  0.17332218  0.01644774  0.22087085    -0.19110
H494        H  0.17452959  0.02294755  0.27262534     0.18650
H495        H  0.18148993  0.11082713  0.22113845     0.18660
F496        F  0.18275311  0.11739413  0.27244620    -0.19100
C497        C  0.15563130  0.00697117  0.48541368    -0.20540
C498        C  0.13641444  0.01676832  0.47384593    -0.08580
C499        C  0.10697075  0.00563699  0.48458919     0.30280
C500        C  0.09723619  0.48559072  0.50663497    -0.20540
C501        C  0.11624409  0.47555145  0.51813097    -0.08590
C502        C  0.14558182  0.48631359  0.50723166     0.30290
F503        F  0.16499357  0.47794758  0.51837647    -0.19110
H504        H  0.17820678  0.01483872  0.47719758     0.18650
H505        H  0.07478448  0.47809160  0.51497713     0.18660
F506        F  0.08773990  0.01459241  0.47407026    -0.19100
C507        C  0.05694954  0.07352671  0.38296659    -0.20540
C508        C  0.08513650  0.09745085  0.37406045    -0.08580
C509        C  0.08692615  0.12444772  0.36386681     0.30280
C510        C  0.06051883  0.12730949  0.36338395    -0.20540
C511        C  0.03223327  0.10298729  0.37249737    -0.08590
C512        C  0.03101702  0.07600502  0.38225849     0.30290
F513        F  0.50479048  0.05162206  0.39170972    -0.19110
H514        H  0.05468142  0.05221004  0.39039737     0.18650
H515        H  0.06211722  0.14826462  0.35583760     0.18660
F516        F  0.11401751  0.14802191  0.35501550    -0.19100
C517        C  0.30511910  0.06637376  0.41571612    -0.20540
C518        C  0.31595847  0.05735891  0.39377051    -0.08580
C519        C  0.29536756  0.04054013  0.37254995     0.30280
C520        C  0.26559046  0.03567858  0.37220042    -0.20540
C521        C  0.25579161  0.04734159  0.39290890    -0.08590
C522        C  0.27532687  0.06138484  0.41541130     0.30290
F523        F  0.26622696  0.07163974  0.43663688    -0.19110
H524        H  0.32016037  0.07872411  0.43255785     0.18650
H525        H  0.25087744  0.02440339  0.35489078     0.18660
F526        F  0.30429825  0.03003562  0.35139429    -0.19100
C527        C  0.36056962  0.30775839  0.26577342    -0.20540
C528        C  0.38857461  0.32083373  0.28017419    -0.08580
C529        C  0.41627031  0.33449391  0.26575445     0.30280
C530        C  0.41591354  0.33539663  0.23768699    -0.20540
C531        C  0.38811276  0.32219034  0.22331013    -0.08590
C532        C  0.36029167  0.30802759  0.23740689     0.30290
F533        F  0.33309764  0.29551557  0.22382863    -0.19110
H534        H  0.33900533  0.29723758  0.27646226     0.18650
H535        H  0.43754689  0.34645792  0.22705642     0.18660
F536        F  0.44387397  0.34800010  0.27875780    -0.19100
C537        C  0.36000243  0.42538625  0.37973646    -0.20540
C538        C  0.38130279  0.42079926  0.36558163    -0.08580
C539        C  0.40540263  0.44561408  0.35187879     0.30280
C540        C  0.40946783  0.47491117  0.35397784    -0.20540
C541        C  0.38980274  0.47999234  0.36990944    -0.08590
C542        C  0.36432791  0.45504028  0.38203330     0.30290
F543        F  0.34476218  0.45961883  0.39715464    -0.19110
H544        H  0.34163761  0.40662013  0.39077950     0.18650
H545        H  0.42910689  0.49402310  0.34442631     0.18660
F546        F  0.42645241  0.44188325  0.33819220    -0.19100
C547        C  0.45098799  0.24894050  0.37337821    -0.20540
C548        C  0.43713145  0.25396347  0.39585362    -0.08580
C549        C  0.43016257  0.23451254  0.41837985     0.30280
C550        C  0.43483926  0.20944723  0.41748964    -0.20540
C551        C  0.44672259  0.20328712  0.39429514    -0.08590
C552        C  0.45576038  0.22394862  0.37254628     0.30290
F553        F  0.46702702  0.21881095  0.34967414    -0.19110
H554        H  0.45698539  0.26363715  0.35574763     0.18650
H555        H  0.42798799  0.19405820  0.43468896     0.18660
F556        F  0.41736961  0.23862813  0.44072531    -0.19100
C557        C  0.01902568  0.43588650  0.35274186    -0.20540
C558        C  0.01446333  0.40993756  0.36697308    -0.08580
C559        C  0.03975484  0.40744854  0.37549440     0.30280
C560        C  0.06957208  0.43230213  0.37184065    -0.20540
C561        C  0.07394227  0.45939225  0.35954466    -0.08590
C562        C  0.04851147  0.46036453  0.34880872     0.30290
F563        F  0.05209270  0.98607492  0.33642074    -0.19110
H564        H  0.99958223  0.43768410  0.34562436     0.18650
H565        H  0.08887514  0.43135855  0.38056349     0.18660
F566        F  0.03552366  0.38209551  0.38896698    -0.19100
C567        C  0.26962773  0.23042669  0.38012924    -0.20540
C568        C  0.29633409  0.23662295  0.39450157    -0.08580
C569        C  0.29612524  0.21283980  0.40996766     0.30280
C570        C  0.27030566  0.18357290  0.41016122    -0.20540
C571        C  0.24429354  0.17701256  0.39472282    -0.08590
C572        C  0.24381484  0.20085393  0.38013102     0.30290
F573        F  0.21864350  0.19546538  0.36549783    -0.19110
H574        H  0.26898356  0.24822323  0.36826758     0.18650
H575        H  0.27136508  0.16554741  0.42129487     0.18660
F576        F  0.32132527  0.21717230  0.42396188    -0.19100
C577        C  0.34816632  0.40600088  0.73258478    -0.20540
C578        C  0.32088751  0.38636657  0.71853935    -0.08580
C579        C  0.29415300  0.36740390  0.73334878     0.30280
C580        C  0.29505783  0.36828934  0.76170826    -0.20540
C581        C  0.32254633  0.38808256  0.77560377    -0.08590
C582        C  0.34909221  0.40704247  0.76056778     0.30290
F583        F  0.37607225  0.42734962  0.77271421    -0.19110
H584        H  0.36905697  0.42127032  0.72187645     0.18650
H585        H  0.27430500  0.35348560  0.77276847     0.18660
F586        F  0.26734927  0.34792158  0.72056410    -0.19100
C587        C  0.22774393  0.25643003  0.61165484    -0.20540
C588        C  0.23441857  0.28549573  0.60241678    -0.08580
C589        C  0.21130875  0.28867751  0.58921829     0.30280
C590        C  0.18150513  0.26371901  0.58703248    -0.20540
C591        C  0.17419463  0.23527867  0.59811384    -0.08590
C592        C  0.19760157  0.23143721  0.60982401     0.30290
F593        F  0.19081231  0.20419246  0.62120739    -0.19110
H594        H  0.24521307  0.25362936  0.62201366     0.18650
H595        H  0.16361893  0.26716620  0.57841163     0.18660
F596        F  0.21724213  0.31645184  0.57972132    -0.19100
C597        C  0.44535281  0.05024680  0.64916429    -0.20420
C598        C  0.45180921  0.07121126  0.62805734    -0.08580
C599        C  0.43303292  0.06156578  0.60475595     0.30280
C600        C  0.40975489  0.03068880  0.60196037    -0.20540
C601        C  0.40481053  0.00914048  0.62240979    -0.08590
C602        C  0.42221754  0.01970711  0.64656236     0.30290
F603        F  0.41831109  0.50032385  0.66729893    -0.19110
H604        H  0.45951798  0.05718389  0.66730047     0.18650
H605        H  0.39658241  0.02339799  0.58330092     0.18660
F606        F  0.43886818  0.08121384  0.58380939    -0.19100
C607        C  0.19698062  0.40884548  0.60322566    -0.20540
C608        C  0.20305940  0.43917059  0.60532138    -0.08580
C609        C  0.23373370  0.46343487  0.60476749     0.30280
C610        C  0.25777101  0.45706215  0.60221583    -0.20540
C611        C  0.25125804  0.42650761  0.60058261    -0.08590
C612        C  0.22066069  0.40254959  0.60113744     0.30290
F613        F  0.21369828  0.37280370  0.60036412    -0.19110
H614        H  0.17361131  0.38968745  0.60377956     0.18650
H615        H  0.28135804  0.47576595  0.60252095     0.18660
F616        F  0.24036968  0.99299618  0.60639783    -0.19100
C617        C  0.43189021  0.36189411  0.63052577    -0.20540
C618        C  0.42338630  0.38212800  0.61926360    -0.08580
C619        C  0.44517899  0.40825986  0.60525415     0.30280
C620        C  0.47530941  0.41493067  0.60359214    -0.20540
C621        C  0.48470072  0.39598380  0.61614842    -0.08590
C622        C  0.46256565  0.36886881  0.62916768     0.30290
F623        F  0.47060516  0.34954244  0.64096798    -0.19110
H624        H  0.41524945  0.34162844  0.64133348     0.18650
H625        H  0.49159465  0.43583576  0.59331727     0.18660
F626        F  0.43743810  0.42798506  0.59372415    -0.19100
C627        C  0.35251883  0.34515412  0.48227138    -0.20540
C628        C  0.38417768  0.36153112  0.47704230    -0.08580
C629        C  0.40326758  0.38754635  0.49283011     0.30280
C630        C  0.39089306  0.39641709  0.51382419    -0.20540
C631        C  0.35925756  0.37982200  0.51913559    -0.08590
C632        C  0.34016583  0.35416520  0.50305956     0.30290
F633        F  0.30956989  0.33746793  0.50786891    -0.19110
H634        H  0.33720834  0.32554753  0.46993025     0.18650
H635        H  0.40621115  0.41542960  0.52673155     0.18660
F636        F  0.43400198  0.40361511  0.48862828    -0.19100
Zn637      Zn  0.33460823  0.92166182  0.58593829     1.49720
Zn638      Zn  0.33107571  0.85610364  0.60157299     1.49360
Zn639      Zn  0.36131539  0.91237814  0.63991591     1.49110
Zn640      Zn  0.29182675  0.87697888  0.63381052     1.49480
O641        O  0.32926935  0.89181372  0.61441015    -1.83360
O642        O  0.34636525  0.90814551  0.55034319    -0.73990
O643        O  0.36845697  0.85477391  0.61652795    -0.73810
O644        O  0.38056266  0.95746473  0.63726410    -0.73320
O645        O  0.34125435  0.86310591  0.56266168    -0.74000
O646        O  0.36875944  0.96538448  0.59598803    -0.73600
O647        O  0.39334142  0.90273992  0.63189328    -0.74190
O648        O  0.29678499  0.87642027  0.67469197    -0.73580
O649        O  0.28939521  0.81615347  0.60341702    -0.74330
O650        O  0.34750989  0.90065803  0.67739846    -0.73720
O651        O  0.26183560  0.83511273  0.62051044    -0.74190
O652        O  0.27376808  0.90255801  0.62391053    -0.74100
O653        O  0.29554390  0.92529740  0.58486657    -0.73890
C654        C  0.34789900  0.88404949  0.54518642     0.77900
C655        C  0.39324479  0.87898812  0.62354313     0.78390
C656        C  0.38332942  0.97568464  0.61827263     0.77350
C657        C  0.32145600  0.88736819  0.68866291     0.77730
C658        C  0.26358767  0.81343238  0.60938216     0.78860
C659        C  0.27535550  0.91838239  0.60321440     0.77910
Zn660      Zn  0.36426403  0.82730688  0.36364906     1.49720
Zn661      Zn  0.42361794  0.87310014  0.39790695     1.49360
Zn662      Zn  0.39014970  0.80486866  0.41325934     1.49110
Zn663      Zn  0.42718226  0.82640048  0.35970727     1.49480
O664        O  0.40085254  0.83259349  0.38321624    -1.83360
O665        O  0.36105543  0.86623612  0.36731109    -0.73990
O666        O  0.41311285  0.87478944  0.43677833    -0.73810
O667        O  0.34796489  0.77121518  0.40625197    -0.73320
O668        O  0.40976816  0.89843160  0.37913252    -0.74000
O669        O  0.32640048  0.78747651  0.37603466    -0.73600
O670        O  0.38626440  0.82527702  0.44748522    -0.74190
O671        O  0.43049726  0.79055672  0.37132969    -0.73580
O672        O  0.46868545  0.89321344  0.39072866    -0.74330
O673        O  0.41614092  0.78372794  0.41429191    -0.73720
O674        O  0.46990537  0.86218215  0.35971080    -0.74190
O675        O  0.41216317  0.82142303  0.32178506    -0.74100
O676        O  0.36891788  0.82287510  0.32330988    -0.73890
C677        C  0.38379372  0.89343469  0.37064805     0.77900
C678        C  0.39586194  0.85343003  0.45296862     0.78390
C679        C  0.32487499  0.76687627  0.39222592     0.77350
C680        C  0.42769046  0.77752260  0.39405628     0.77730
C681        C  0.48298299  0.88676976  0.37338884     0.78860
C682        C  0.38956320  0.82129769  0.31001213     0.77910
Zn683      Zn  0.16934905  0.59725432  0.35598633     1.49720
Zn684      Zn  0.19315986  0.57891008  0.40958968     1.49360
Zn685      Zn  0.12685386  0.54610285  0.39412708     1.49110
Zn686      Zn  0.16902036  0.53292174  0.35874510     1.49480
O687        O  0.16591901  0.56431805  0.37887141    -1.83360
O688        O  0.20487107  0.63665741  0.36922558    -0.73990
O689        O  0.17335903  0.55608953  0.44476235    -0.73810
O690        O  0.11011873  0.57369430  0.39378944    -0.73320
O691        O  0.21548918  0.62539405  0.41024619    -0.74000
O692        O  0.13176269  0.60218010  0.35748738    -0.73600
O693        O  0.12497952  0.52950592  0.43099706    -0.74190
O694        O  0.12887097  0.99149235  0.36163803    -0.73580
O695        O  0.22476121  0.56799024  0.40365512    -0.74330
O696        O  0.09912598  0.01053702  0.37241278    -0.73720
O697        O  0.20689178  0.53168596  0.37208399    -0.74190
O698        O  0.17428354  0.54443013  0.31880824    -0.74100
O699        O  0.17516292  0.58893183  0.31737152    -0.73890
C700        C  0.21979967  0.64473451  0.39149153     0.77900
C701        C  0.14548725  0.53550044  0.44883947     0.78390
C702        C  0.11104647  0.59184459  0.37541663     0.77350
C703        C  0.10237985  0.98860003  0.36424391     0.77730
C704        C  0.22734878  0.54856751  0.38952002     0.78860
C705        C  0.17608305  0.56706610  0.30549018     0.77910
Zn706      Zn  0.11068830  0.91601844  0.58579122     1.49720
Zn707      Zn  0.08065302  0.95392091  0.59873643     1.49360
Zn708      Zn  0.07219621  0.90379677  0.63856126     1.49110
Zn709      Zn  0.13799399  0.96619092  0.63463385     1.49480
O710        O  0.10121135  0.93509837  0.61491057    -1.83360
O711        O  0.11398115  0.93764612  0.54943608    -0.73990
O712        O  0.03535521  0.92813823  0.60085903    -0.73810
O713        O  0.07093942  0.86488770  0.63073205    -0.73320
O714        O  0.09342395  0.96576670  0.56085142    -0.74000
O715        O  0.08469098  0.86858080  0.58770263    -0.73600
O716        O  0.02872605  0.89514400  0.63345797    -0.74190
O717        O  0.13207030  0.95623632  0.67520867    -0.73580
O718        O  0.09316442  0.49273566  0.61719616    -0.74330
O719        O  0.08531581  0.91509257  0.67690266    -0.73720
O720        O  0.14125295  0.50877482  0.63082750    -0.74190
O721        O  0.17600639  0.96370118  0.62236411    -0.74100
O722        O  0.15270813  0.92482021  0.59331351    -0.73890
C723        C  0.10708444  0.95823712  0.54388221     0.77900
C724        C  0.01785898  0.90648178  0.61666384     0.78390
C725        C  0.07427535  0.85294734  0.60947721     0.77350
C726        C  0.10949444  0.93571354  0.68870561     0.77730
C727        C  0.11892545  0.51352541  0.62631942     0.78860
C728        C  0.17626045  0.94355851  0.60690851     0.77910
Zn729      Zn  0.02493694  0.66248217  0.60580105     1.49720
Zn730      Zn  0.04788365  0.62958995  0.64550090     1.49360
Zn731      Zn  0.08258041  0.65460279  0.58999805     1.49110
Zn732      Zn  0.08807941  0.69883443  0.63847833     1.49480
O733        O  0.06098991  0.66165076  0.61928789    -1.83360
O734        O  0.48486298  0.62498389  0.61856213    -0.73990
O735        O  0.07313320  0.60931370  0.64292337    -0.73810
O736        O  0.05576994  0.64229572  0.55480785    -0.73320
O737        O  0.50443974  0.59873479  0.63823563    -0.74000
O738        O  0.02102289  0.65465708  0.56667462    -0.73600
O739        O  0.09246362  0.62157546  0.60165623    -0.74190
O740        O  0.13093491  0.71563033  0.62549427    -0.73580
O741        O  0.05070067  0.64475487  0.68330838    -0.74330
O742        O  0.12519279  0.69286823  0.58556461    -0.73720
O743        O  0.08609734  0.69393650  0.67928848    -0.74190
O744        O  0.07601389  0.72994871  0.62952135    -0.74100
O745        O  0.02977567  0.70502790  0.60988593    -0.73890
C746        C  0.48170214  0.60011114  0.62854329     0.77900
C747        C  0.08873912  0.60720031  0.62393393     0.78390
C748        C  0.03230874  0.64494256  0.54925956     0.77350
C749        C  0.14178134  0.71300258  0.60325398     0.77730
C750        C  0.06829533  0.67091744  0.69379332     0.78860
C751        C  0.05288006  0.72973838  0.61871588     0.77910
Zn752      Zn  0.46310813  0.63074866  0.36388621     1.49720
Zn753      Zn  0.39805925  0.56862048  0.35801919     1.49360
Zn754      Zn  0.44391376  0.57104168  0.39837055     1.49110
Zn755      Zn  0.41405727  0.60777085  0.41202137     1.49480
O756        O  0.42958300  0.59562597  0.38251987    -1.83360
O757        O  0.45448387  0.62601051  0.32314915    -0.73990
O758        O  0.39178566  0.52611015  0.35756088    -0.73810
O759        O  0.97911745  0.57924244  0.37690017    -0.73320
O760        O  0.40834253  0.58385353  0.32045347    -0.74000
O761        O  0.00332419  0.62961160  0.37030907    -0.73600
O762        O  0.41492232  0.52543417  0.39570009    -0.74190
O763        O  0.43665297  0.60960049  0.44718772    -0.73580
O764        O  0.35876185  0.56405668  0.36947000    -0.74330
O765        O  0.46069311  0.58489105  0.43581041    -0.73720
O766        O  0.36727745  0.58186109  0.41166776    -0.74190
O767        O  0.42523169  0.65106839  0.40561311    -0.74100
O768        O  0.46360637  0.67008574  0.37614325    -0.73890
C769        C  0.43174544  0.60587144  0.30931404     0.77900
C770        C  0.39834271  0.51183610  0.37512618     0.78390
C771        C  0.00365487  0.60447719  0.37279956     0.77350
C772        C  0.45610174  0.60111623  0.45252158     0.77730
C773        C  0.34904223  0.56800604  0.39178084     0.78860
C774        C  0.44557389  0.67342800  0.39196199     0.77910
Zn775      Zn  0.36599909  0.91440751  0.85417537     1.49720
Zn776      Zn  0.29548117  0.87995029  0.85998186     1.49360
Zn777      Zn  0.33494053  0.85913035  0.89318829     1.49110
Zn778      Zn  0.33714881  0.92365732  0.90776253     1.49480
O779        O  0.33350105  0.89460347  0.87944366    -1.83360
O780        O  0.35020158  0.90422099  0.81677374    -0.73990
O781        O  0.26477505  0.83908381  0.87490809    -0.73810
O782        O  0.36992569  0.85491795  0.87788627    -0.73320
O783        O  0.29954491  0.87742056  0.81940690    -0.74000
O784        O  0.39684583  0.90114861  0.85914617    -0.73600
O785        O  0.29245909  0.82028455  0.89317698    -0.74190
O786        O  0.34866748  0.91040644  0.94440967    -0.73580
O787        O  0.27920599  0.90778877  0.86686821    -0.74330
O788        O  0.34817979  0.86804793  0.93116615    -0.73720
O789        O  0.29812211  0.92785302  0.90730312    -0.74190
O790        O  0.37101917  0.96719520  0.89728855    -0.74100
O791        O  0.38665271  0.95964472  0.85794695    -0.73890
C792        C  0.32396528  0.88970801  0.80546768     0.77900
C793        C  0.26661193  0.81772634  0.88701414     0.78390
C794        C  0.39472621  0.87632993  0.86771199     0.77350
C795        C  0.35323308  0.88791011  0.94911551     0.77730
C796        C  0.27995460  0.92338004  0.88724974     0.78860
C797        C  0.38728219  0.97766387  0.87604541     0.77910
Zn798      Zn  0.37945181  0.79666828  0.13878131     1.49720
Zn799      Zn  0.41692062  0.86550999  0.14554882     1.49360
Zn800      Zn  0.42267090  0.83746696  0.09077881     1.49110
Zn801      Zn  0.35930777  0.83667131  0.10736954     1.49480
O802        O  0.39479138  0.83416578  0.11977450    -1.83360
O803        O  0.37583892  0.80068587  0.17916187    -0.73990
O804        O  0.46202550  0.88384048  0.14179794    -0.73810
O805        O  0.42634983  0.79830749  0.09106135    -0.73320
O806        O  0.40602212  0.85113555  0.18347588    -0.74000
O807        O  0.40749050  0.78102220  0.13204206    -0.73600
O808        O  0.46678712  0.87122386  0.10010739    -0.74190
O809        O  0.36662223  0.84872112  0.06908365    -0.73580
O810        O  0.40753099  0.89799817  0.13733121    -0.74330
O811        O  0.40840619  0.84896866  0.05479518    -0.73720
O812        O  0.35936363  0.87462558  0.12204519    -0.74190
O813        O  0.31933705  0.79424568  0.10788197    -0.74100
O814        O  0.33920814  0.76627566  0.12307704    -0.73890
C815        C  0.38939969  0.82468600  0.19375635     0.77900
C816        C  0.47876642  0.88582655  0.12203758     0.78390
C817        C  0.42257266  0.78111056  0.11159144     0.77350
C818        C  0.38586213  0.85362023  0.05069377     0.77730
C819        C  0.38431692  0.89905272  0.12852992     0.78860
C820        C  0.31729761  0.76824035  0.11227408     0.77910
Zn821      Zn  0.16856142  0.53168899  0.13490542     1.49720
Zn822      Zn  0.16863605  0.59551649  0.13701940     1.49360
Zn823      Zn  0.19347260  0.57880136  0.08472937     1.49110
Zn824      Zn  0.12422730  0.54438019  0.09805917     1.49480
O825        O  0.16436896  0.56269651  0.11413010    -1.83360
O826        O  0.17239374  0.54228101  0.17501413    -0.73990
O827        O  0.20366364  0.63547304  0.12441337    -0.73810
O828        O  0.22649827  0.56936612  0.09261433    -0.73320
O829        O  0.17450195  0.58732843  0.17582363    -0.74000
O830        O  0.20873255  0.53312001  0.12434955    -0.73600
O831        O  0.21489590  0.62592004  0.08350976    -0.74190
O832        O  0.12456807  0.53154696  0.06018128    -0.73580
O833        O  0.13211781  0.60150746  0.13449208    -0.74330
O834        O  0.17389604  0.55533637  0.04960913    -0.73720
O835        O  0.10526993  0.57103107  0.10051242    -0.74190
O836        O  0.09704814  0.00490847  0.11617043    -0.74100
O837        O  0.12915948  0.98930839  0.13031259    -0.73890
C838        C  0.17479466  0.56514027  0.18805789     0.77900
C839        C  0.21834659  0.64469925  0.10236399     0.78390
C840        C  0.22973176  0.55077998  0.10786416     0.77350
C841        C  0.14579488  0.53632140  0.04390570     0.77730
C842        C  0.10993903  0.59170771  0.11761802     0.78860
C843        C  0.10205003  0.98408330  0.12492953     0.77910
Zn844      Zn  0.07394334  0.89894450  0.85607333     1.49720
Zn845      Zn  0.13543686  0.96461138  0.85981460     1.49360
Zn846      Zn  0.07667766  0.94408846  0.89721543     1.49110
Zn847      Zn  0.11768181  0.91749326  0.90919578     1.49480
O848        O  0.10182825  0.93125869  0.88003298    -1.83360
O849        O  0.08789231  0.90870640  0.81769080    -0.73990
O850        O  0.13313110  0.50399620  0.86423589    -0.73810
O851        O  0.03108450  0.91446842  0.89470190    -0.73320
O852        O  0.12911850  0.95536039  0.81952005    -0.74000
O853        O  0.03076048  0.89182572  0.85647565    -0.73600
O854        O  0.08478978  0.48148908  0.87855079    -0.74190
O855        O  0.12056133  0.93961037  0.94475229    -0.73580
O856        O  0.17629856  0.96662260  0.86999187    -0.74330
O857        O  0.09000362  0.95801848  0.93491040    -0.73720
O858        O  0.16099711  0.92977861  0.90120312    -0.74190
O859        O  0.09345935  0.87074893  0.90943006    -0.74100
O860        O  0.07084220  0.85993848  0.86868080    -0.73890
C861        C  0.10923723  0.93228213  0.80599185     0.77900
C862        C  0.10847528  0.50451999  0.86884759     0.78390
C863        C  0.01672830  0.89762100  0.87453463     0.77350
C864        C  0.10870126  0.95588176  0.95089495     0.77730
C865        C  0.18159819  0.94961791  0.88587859     0.78860
C866        C  0.07794208  0.85158955  0.89065531     0.77910
Zn867      Zn  0.09697276  0.66745019  0.86060909     1.49720
Zn868      Zn  0.03258287  0.66650461  0.86308979     1.49360
Zn869      Zn  0.04382057  0.62073742  0.89817935     1.49110
Zn870      Zn  0.07967751  0.68884233  0.91350354     1.49480
O871        O  0.06333836  0.66124824  0.88328394    -1.83360
O872        O  0.08937311  0.67520116  0.82213314    -0.73990
O873        O  0.48940346  0.62833417  0.86722756    -0.73810
O874        O  0.06801775  0.60016181  0.89152136    -0.73320
O875        O  0.04283576  0.66992836  0.82315401    -0.74000
O876        O  0.10186111  0.63041605  0.86075606    -0.73600
O877        O  0.50422760  0.59529276  0.87985587    -0.74190
O878        O  0.05560589  0.66875702  0.94751279    -0.73580
O879        O  0.03548570  0.70701536  0.87433317    -0.74330
O880        O  0.03083150  0.61942447  0.93671014    -0.73720
O881        O  0.07157381  0.72239624  0.90624882    -0.74190
O882        O  0.12642111  0.71028757  0.91608015    -0.74100
O883        O  0.13672160  0.70186445  0.87444214    -0.73890
C884        C  0.06624939  0.67390076  0.81013087     0.77900
C885        C  0.48369039  0.60095438  0.87165556     0.78390
C886        C  0.08902877  0.60582596  0.87457834     0.77350
C887        C  0.03586586  0.64089004  0.95298566     0.77730
C888        C  0.05384432  0.72720332  0.89123884     0.78860
C889        C  0.14542880  0.71540528  0.89713989     0.77910
Zn890      Zn  0.44931133  0.58367321  0.14281337     1.49720
Zn891      Zn  0.41324638  0.61788244  0.13939969     1.49360
Zn892      Zn  0.47289728  0.64156278  0.10497982     1.49110
Zn893      Zn  0.41122653  0.57776065  0.08898815     1.49480
O894        O  0.43656311  0.60509181  0.11855159    -1.83360
O895        O  0.44481583  0.59092333  0.18176061    -0.73990
O896        O  0.42561430  0.66102405  0.12983078    -0.73810
O897        O  0.01252917  0.64384387  0.11777496    -0.73320
O898        O  0.42039365  0.61717838  0.17954999    -0.74000
O899        O  0.49286640  0.59705059  0.13566414    -0.73600
O900        O  0.47047226  0.68047494  0.10894986    -0.74190
O901        O  0.43530067  0.59193247  0.05293215    -0.73580
O902        O  0.36851725  0.59095806  0.13038449    -0.74330
O903        O  0.47534821  0.63640091  0.06594042    -0.73720
O904        O  0.36902256  0.57458449  0.08872940    -0.74190
O905        O  0.40147551  0.53400678  0.09661987    -0.74100
O906        O  0.42568380  0.53886894  0.13578279    -0.73890
C907        C  0.43306240  0.60501432  0.19314421     0.77900
C908        C  0.44869474  0.68332039  0.11851903     0.78390
C909        C  0.01537310  0.62148620  0.12635790     0.77350
C910        C  0.46090207  0.61630561  0.04790455     0.77730
C911        C  0.35468447  0.57749434  0.10859819     0.78860
C912        C  0.40861224  0.52250536  0.11644612     0.77910
C913        C  0.47610064  0.59735302  0.00753363    -0.20540
C914        C  0.47637882  0.62160103  0.02150082    -0.08580
C915        C  0.49626397  0.65190769  0.01271464     0.30280
C916        C  0.01602288  0.65781059  0.99111961    -0.20540
C917        C  0.01649061  0.63375834  0.97746029    -0.08590
C918        C  0.99590256  0.60326982  0.98570819     0.30290
F919        F  0.99520373  0.57915280  0.97307015    -0.19110
H920        H  0.46151622  0.57389425  0.01423866     0.18650
H921        H  0.03080080  0.68142728  0.98491245     0.18660
F922        F  0.49688950  0.67604900  0.02528420    -0.19100
C923        C  0.04502090  0.79654235  0.87727862    -0.20540
C924        C  0.06876303  0.81890955  0.89359501    -0.08580
C925        C  0.08529712  0.81006871  0.91072820     0.30280
C926        C  0.07910014  0.77987753  0.91058543    -0.20540
C927        C  0.05644627  0.75773185  0.89328874    -0.08590
C928        C  0.03880497  0.76618921  0.87711292     0.30290
F929        F  0.51628910  0.74556577  0.86054762    -0.19110
H930        H  0.03174053  0.80274565  0.86404507     0.18650
H931        H  0.09313140  0.77425272  0.92340163     0.18660
F932        F  0.10882671  0.83091849  0.92636532    -0.19100
C933        C  0.13112700  0.56174861  0.86900223    -0.20540
C934        C  0.10610602  0.53211348  0.86429569    -0.08580
C935        C  0.07672829  0.52822904  0.85968392     0.30280
C936        C  0.07192689  0.55274664  0.86262244    -0.20540
C937        C  0.09630566  0.58178378  0.86929454    -0.08590
C938        C  0.12628021  0.58671127  0.87124858     0.30290
F939        F  0.15029212  0.61500884  0.87711791    -0.19110
H940        H  0.15388062  0.56522039  0.87258956     0.18650
H941        H  0.04885924  0.54890803  0.86021703     0.18660
F942        F  0.05214121  0.00023503  0.85382449    -0.19100
C943        C  0.15698903  0.50795369  0.00864365    -0.20540
C944        C  0.13721492  0.51732794  0.01906835    -0.08580
C945        C  0.10760974  0.50504258  0.00770289     0.30280
C946        C  0.09824405  0.98415298  0.98635524    -0.20540
C947        C  0.11787236  0.97462583  0.97593285    -0.08590
C948        C  0.14743246  0.98666797  0.98741510     0.30290
F949        F  0.16743364  0.97870287  0.97759151    -0.19110
H950        H  0.17966410  0.51655938  0.01738412     0.18650
H951        H  0.07552031  0.97560812  0.97773900     0.18660
F952        F  0.08769969  0.51336539  0.01709505    -0.19100
C953        C  0.08708835  0.61882361  0.14174438    -0.20540
C954        C  0.08882387  0.60404245  0.11835818    -0.08580
C955        C  0.06899943  0.59974967  0.09643321     0.30280
C956        C  0.04695237  0.60852226  0.09854891    -0.20540
C957        C  0.04403187  0.62141650  0.12248154    -0.08590
C958        C  0.06454454  0.62707971  0.14395642     0.30290
F959        F  0.06166859  0.63896953  0.16748453    -0.19110
H960        H  0.10208949  0.62249714  0.15890209     0.18650
H961        H  0.03079438  0.60346388  0.08201598     0.18660
F962        F  0.07008833  0.58608962  0.07329009    -0.19100
C963        C  0.30290930  0.55269454  0.12967358    -0.20540
C964        C  0.32127463  0.56561323  0.10672286    -0.08580
C965        C  0.30794208  0.56957772  0.08314867     0.30280
C966        C  0.27741674  0.56278480  0.08324537    -0.20540
C967        C  0.25945287  0.55148370  0.10667658    -0.08590
C968        C  0.27215818  0.54531103  0.12962253     0.30290
F969        F  0.25569444  0.53431847  0.15260597    -0.19110
H970        H  0.31272116  0.54920845  0.14801122     0.18650
H971        H  0.26818571  0.56763784  0.06522443     0.18660
F972        F  0.32503267  0.58226684  0.06072117    -0.19100
C973        C  0.02452571  0.92479385  0.14820760    -0.20540
C974        C  0.01257440  0.90659551  0.12481378    -0.08580
C975        C  0.03297682  0.91044936  0.10393937     0.30280
C976        C  0.06385155  0.93384003  0.10557433    -0.20540
C977        C  0.07487507  0.95346951  0.12801974    -0.08590
C978        C  0.05523829  0.94814336  0.14970166     0.30290
F979        F  0.06506997  0.96736699  0.17126745    -0.19110
H980        H  0.00967893  0.92232101  0.16481857     0.18650
H981        H  0.07855608  0.93818424  0.08835823     0.18660
F982        F  0.02285197  0.89300050  0.08127797    -0.19100
C983        C  0.26895659  0.68727126  0.08685096    -0.20540
C984        C  0.24100811  0.67788259  0.09972369    -0.08580
C985        C  0.23686174  0.70004449  0.11327439     0.30280
C986        C  0.26102827  0.73051919  0.11537370    -0.20540
C987        C  0.28972814  0.73910657  0.10446026    -0.08590
C988        C  0.29324310  0.71747766  0.08948009     0.30290
F989        F  0.32080389  0.72521587  0.07860707    -0.19110
H990        H  0.27277993  0.67071138  0.07642216     0.18650
H991        H  0.25796775  0.74679117  0.12711289     0.18660
F992        F  0.20988526  0.69192929  0.12552006    -0.19100
C993        C  0.36420216  0.93591013  0.12491316    -0.20540
C994        C  0.38852794  0.92990733  0.12379914    -0.08580
C995        C  0.41819086  0.95412889  0.11744078     0.30280
C996        C  0.42371862  0.98377329  0.11401262    -0.20540
C997        C  0.39996930  0.99011279  0.11632090    -0.08590
C998        C  0.36993157  0.96606072  0.12131625     0.30290
F999        F  0.34665344  0.97194310  0.12389985    -0.19110
H1000       H  0.34116163  0.91758499  0.12934829     0.18650
H1001       H  0.44692456  0.00210817  0.10999101     0.18660
F1002       F  0.44210722  0.94925515  0.11432838    -0.19100
C1003       C  0.43605450  0.74747777  0.13796844    -0.20540
C1004       C  0.43507800  0.76003214  0.11271817    -0.08580
C1005       C  0.44375253  0.75025821  0.08958730     0.30280
C1006       C  0.45087072  0.72670218  0.09169443    -0.20540
C1007       C  0.44923582  0.71270369  0.11677278    -0.08590
C1008       C  0.44273262  0.72397134  0.13996745     0.30290
F1009       F  0.44141796  0.71117478  0.16451607    -0.19110
H1010       H  0.43030112  0.75493125  0.15632336     0.18650
H1011       H  0.45560017  0.71801288  0.07354636     0.18660
F1012       F  0.44343552  0.76190998  0.06487557    -0.19100
C1013       C  0.18544731  0.76784988  0.91090999    -0.20540
C1014       C  0.17802544  0.73923279  0.90028202    -0.08580
C1015       C  0.20128432  0.73567716  0.88840938     0.30280
C1016       C  0.23106247  0.76090259  0.88588636    -0.20540
C1017       C  0.23765037  0.79002815  0.89444558    -0.08590
C1018       C  0.21487942  0.79317382  0.90767509     0.30290
F1019       F  0.22078264  0.82110111  0.91641629    -0.19110
H1020       H  0.16784415  0.77116407  0.91985251     0.18650
H1021       H  0.24834568  0.75811234  0.87565763     0.18660
F1022       F  0.19482001  0.70814711  0.87815753    -0.19100
C1023       C  0.41019890  0.53233073  0.89187824    -0.20540
C1024       C  0.40783417  0.51130588  0.87213059    -0.08580
C1025       C  0.42662300  0.52273289  0.84908368     0.30280
C1026       C  0.44894389  0.55374255  0.84726421    -0.20540
C1027       C  0.45298896  0.57408138  0.86806701    -0.08590
C1028       C  0.43268926  0.56348870  0.88992536     0.30290
F1029       F  0.43667131  0.58261172  0.91068677    -0.19110
H1030       H  0.39586447  0.52442179  0.90961355     0.18650
H1031       H  0.46494771  0.56137350  0.83064805     0.18660
F1032       F  0.42511025  0.00376878  0.82904642    -0.19100
C1033       C  0.22733069  0.95296516  0.90954996    -0.20540
C1034       C  0.21123854  0.95040850  0.88537611    -0.08580
C1035       C  0.21996763  0.94196979  0.86168962     0.30280
C1036       C  0.24320570  0.93461583  0.86247416    -0.20540
C1037       C  0.25845907  0.93558076  0.88686964    -0.08590
C1038       C  0.25112908  0.94615028  0.91027504     0.30290
F1039       F  0.26562674  0.94825100  0.93410998    -0.19110
H1040       H  0.22057451  0.95903408  0.92812748     0.18650
H1041       H  0.24838335  0.92692012  0.84395775     0.18660
F1042       F  0.20406272  0.93799416  0.83828357    -0.19100
C1043       C  0.46400189  0.87427982  0.89357961    -0.20540
C1044       C  0.48358842  0.88614349  0.87132637    -0.08580
C1045       C  0.47193026  0.89004867  0.84661601     0.30280
C1046       C  0.44188555  0.88454182  0.84491606    -0.20540
C1047       C  0.42271424  0.87406570  0.86751224    -0.08590
C1048       C  0.43356980  0.86772399  0.89158458     0.30290
F1049       F  0.41571857  0.85794009  0.91386395    -0.19110
H1050       H  0.47260773  0.87109562  0.91276489     0.18650
H1051       H  0.43404332  0.88992180  0.82630639     0.18660
F1052       F  0.49039603  0.90180346  0.82481323    -0.19100
C1053       C  0.38348422  0.86984106  0.97575415    -0.20540
C1054       C  0.36516971  0.88372557  0.97544843    -0.08580
C1055       C  0.35633788  0.89008897  0.00012678     0.30280
C1056       C  0.36411790  0.88102275  0.02439429    -0.20540
C1057       C  0.38116532  0.86573296  0.02463567    -0.08590
C1058       C  0.39162939  0.86114733  0.00001657     0.30290
F1059       F  0.40826018  0.84682824  0.99918349    -0.19110
H1060       H  0.39081866  0.86490777  0.95703874     0.18650
H1061       H  0.35612697  0.88538060  0.04307301     0.18660
F1062       F  0.33862353  0.90324991  0.00079337    -0.19100
C1063       C  0.42169579  0.57864769  0.23723604    -0.20540
C1064       C  0.43323244  0.60613411  0.22276089    -0.08580
C1065       C  0.44480824  0.63402113  0.23677534     0.30280
C1066       C  0.44497507  0.63421110  0.26510969    -0.20540
C1067       C  0.43266987  0.60650068  0.27956691    -0.08590
C1068       C  0.42097895  0.57868350  0.26533638     0.30290
F1069       F  0.40945546  0.55149001  0.27863901    -0.19110
H1070       H  0.41277092  0.55699730  0.22668581     0.18650
H1071       H  0.45416212  0.65583616  0.27572494     0.18660
F1072       F  0.45656240  0.66097802  0.22309230    -0.19100
C1073       C  0.03982072  0.65819537  0.73707858    -0.20540
C1074       C  0.06778924  0.67423887  0.72334838    -0.08580
C1075       C  0.09501405  0.69197448  0.73823829     0.30280
C1076       C  0.09428468  0.69240723  0.76648288    -0.20540
C1077       C  0.06635064  0.67586184  0.78028640    -0.08590
C1078       C  0.03896446  0.65927405  0.76524233     0.30290
F1079       F  0.01154147  0.64274484  0.77775711    -0.19110
H1080       H  0.01856323  0.64450368  0.72594134     0.18650
H1081       H  0.11566833  0.70534610  0.77762428     0.18660
F1082       F  0.12246581  0.70752236  0.72560961    -0.19100
C1083       C  0.49342005  0.59909255  0.48562456    -0.20540
C1084       C  0.47534739  0.61192051  0.47756655    -0.08580
C1085       C  0.47826409  0.63707097  0.49221346     0.30280
C1086       C  0.99817437  0.64851446  0.51446308    -0.20540
C1087       C  0.01577408  0.63536912  0.52287978    -0.08590
C1088       C  0.01335792  0.61057862  0.50807231     0.30290
F1089       F  0.02909784  0.59654104  0.51596360    -0.19110
H1090       H  0.49197324  0.57992516  0.47462654     0.18650
H1091       H  0.99947362  0.66761869  0.52548552     0.18660
F1092       F  0.46234279  0.65111482  0.48486701    -0.19100
C1093       C  0.08360846  0.91532847  0.73279517    -0.20540
C1094       C  0.11053308  0.93538270  0.71875633    -0.08580
C1095       C  0.13742144  0.95449270  0.73379084     0.30280
C1096       C  0.13705927  0.95336550  0.76215252    -0.20540
C1097       C  0.11004818  0.93308004  0.77601986    -0.08590
C1098       C  0.08325349  0.91415234  0.76091750     0.30290
F1099       F  0.05625459  0.89505972  0.77325109    -0.19110
H1100       H  0.06239297  0.90054188  0.72199925     0.18650
H1101       H  0.15798566  0.96826926  0.77327610     0.18660
F1102       F  0.16407169  0.97406818  0.72122751    -0.19100
C1103       C  0.06503398  0.77934967  0.63856142    -0.20540
C1104       C  0.05399416  0.75942935  0.61643464    -0.08580
C1105       C  0.04869900  0.77001695  0.59169137     0.30280
C1106       C  0.05540169  0.80057314  0.58912209    -0.20540
C1107       C  0.06679140  0.82057648  0.61135608    -0.08590
C1108       C  0.07113026  0.80941223  0.63623522     0.30290
F1109       F  0.08268697  0.82798332  0.65816543    -0.19110
H1110       H  0.06968369  0.77176254  0.65766184     0.18650
H1111       H  0.05179600  0.80860620  0.56983504     0.18660
F1112       F  0.03874512  0.75141973  0.56972605    -0.19100
C1113       C  0.10303060  0.54489612  0.65118154    -0.20540
C1114       C  0.12139467  0.54336304  0.63098838    -0.08580
C1115       C  0.13220889  0.56540933  0.61028092     0.30280
C1116       C  0.12273840  0.58716057  0.60873812    -0.20540
C1117       C  0.10224454  0.58714757  0.62778715    -0.08590
C1118       C  0.09358770  0.56655500  0.64978406     0.30290
F1119       F  0.07401047  0.56553326  0.66886508    -0.19110
H1120       H  0.09373640  0.52748549  0.66683787     0.18650
H1121       H  0.13018985  0.60295961  0.59182539     0.18660
F1122       F  0.14932244  0.56390530  0.59007349    -0.19100
C1123       C  0.17632408  0.54239045  0.26157381    -0.20540
C1124       C  0.17822482  0.56754275  0.27547715    -0.08580
C1125       C  0.18056828  0.59235179  0.26024815     0.30280
C1126       C  0.18012038  0.59149586  0.23205282    -0.20540
C1127       C  0.17731461  0.56602039  0.21809638    -0.08590
C1128       C  0.17585743  0.54153944  0.23325119     0.30290
F1129       F  0.17332206  0.51644564  0.22086451    -0.19110
H1130       H  0.17453117  0.52294579  0.27261921     0.18650
H1131       H  0.18148722  0.61082381  0.22113286     0.18660
F1132       F  0.18275122  0.61739086  0.27244055    -0.19100
C1133       C  0.15563334  0.50697372  0.48541075    -0.20540
C1134       C  0.13641578  0.51677009  0.47384297    -0.08580
C1135       C  0.10697213  0.50563808  0.48458660     0.30280
C1136       C  0.09723403  0.98558941  0.50663733    -0.20540
C1137       C  0.11624121  0.97554928  0.51813331    -0.08590
C1138       C  0.14557896  0.98631076  0.50723432     0.30290
F1139       F  0.16498995  0.97794381  0.51837922    -0.19110
H1140       H  0.17820886  0.51484177  0.47719454     0.18650
H1141       H  0.07478236  0.97809080  0.51497933     0.18660
F1142       F  0.08774054  0.51459268  0.47406793    -0.19100
C1143       C  0.05694844  0.57350878  0.38291821    -0.20540
C1144       C  0.08513994  0.59744789  0.37403924    -0.08580
C1145       C  0.08693181  0.62445328  0.36386663     0.30280
C1146       C  0.06052243  0.62731181  0.36338656    -0.20540
C1147       C  0.03223299  0.60297806  0.37248113    -0.08590
C1148       C  0.03101396  0.57598284  0.38221156     0.30290
F1149       F  0.50478409  0.55158244  0.39163678    -0.19110
H1150       H  0.05467959  0.55218465  0.39032875     0.18650
H1151       H  0.06212395  0.64827617  0.35586237     0.18660
F1152       F  0.11402771  0.64803968  0.35503718    -0.19100
C1153       C  0.30511794  0.56637344  0.41571511    -0.20540
C1154       C  0.31595840  0.55735924  0.39376989    -0.08580
C1155       C  0.29536836  0.54054014  0.37254891     0.30280
C1156       C  0.26559105  0.53567795  0.37219846    -0.20540
C1157       C  0.25579123  0.54734052  0.39290646    -0.08590
C1158       C  0.27532551  0.56138373  0.41540944     0.30290
F1159       F  0.26622450  0.57163804  0.43663468    -0.19110
H1160       H  0.32015849  0.57872384  0.43255722     0.18650
H1161       H  0.25087873  0.52440279  0.35488844     0.18660
F1162       F  0.30430013  0.53003619  0.35139359    -0.19100
C1163       C  0.36056798  0.80775634  0.26577470    -0.20540
C1164       C  0.38857315  0.82083328  0.28017526    -0.08580
C1165       C  0.41626878  0.83449406  0.26575547     0.30280
C1166       C  0.41591180  0.83539580  0.23768807    -0.20540
C1167       C  0.38811089  0.82218801  0.22331135    -0.08590
C1168       C  0.36028984  0.80802462  0.23740817     0.30290
F1169       F  0.33309571  0.79551116  0.22382998    -0.19110
H1170       H  0.33900377  0.79723497  0.27646369     0.18650
H1171       H  0.43754510  0.84645764  0.22705743     0.18660
F1172       F  0.44387254  0.84800176  0.27875872    -0.19100
C1173       C  0.36000457  0.92538827  0.37974169    -0.20540
C1174       C  0.38130358  0.92080086  0.36558491    -0.08580
C1175       C  0.40540210  0.94561534  0.35188063     0.30280
C1176       C  0.40946714  0.97491233  0.35397956    -0.20540
C1177       C  0.38980343  0.97999404  0.36991261    -0.08590
C1178       C  0.36432998  0.95504236  0.38203847     0.30290
F1179       F  0.34476535  0.95962124  0.39716113    -0.19110
H1180       H  0.34164083  0.90662245  0.39078589     0.18650
H1181       H  0.42910504  0.99402390  0.34442642     0.18660
F1182       F  0.42645073  0.94188431  0.33819231    -0.19100
C1183       C  0.45099105  0.74894287  0.37337648    -0.20540
C1184       C  0.43713437  0.75396523  0.39585221    -0.08580
C1185       C  0.43016637  0.73451439  0.41837834     0.30280
C1186       C  0.43484406  0.70944977  0.41748775    -0.20540
C1187       C  0.44672731  0.70329009  0.39429290    -0.08590
C1188       C  0.45576427  0.72395147  0.37254415     0.30290
F1189       F  0.46703039  0.71881378  0.34967170    -0.19110
H1190       H  0.45698773  0.76363949  0.35574593     0.18650
H1191       H  0.42799323  0.69406060  0.43468697     0.18660
F1192       F  0.41737303  0.73862915  0.44072396    -0.19100
C1193       C  0.01902668  0.93588567  0.35274044    -0.20540
C1194       C  0.01446402  0.90993699  0.36697228    -0.08580
C1195       C  0.03975529  0.90744814  0.37549471     0.30280
C1196       C  0.06957258  0.93230169  0.37184138    -0.20540
C1197       C  0.07394302  0.95939164  0.35954485    -0.08590
C1198       C  0.04851254  0.96036375  0.34880785     0.30290
F1199       F  0.05209134  0.48607568  0.33642178    -0.19110
H1200       H  0.99958338  0.93768316  0.34562228     0.18650
H1201       H  0.08887538  0.93135835  0.38056514     0.18660
F1202       F  0.03552375  0.88209540  0.38896802    -0.19100
C1203       C  0.26962943  0.73042733  0.38012860    -0.20540
C1204       C  0.29633541  0.73662361  0.39450158    -0.08580
C1205       C  0.29612641  0.71284029  0.40996755     0.30280
C1206       C  0.27030717  0.68357317  0.41016014    -0.20540
C1207       C  0.24429565  0.67701285  0.39472088    -0.08590
C1208       C  0.24381692  0.70085435  0.38012939     0.30290
F1209       F  0.21864598  0.69546570  0.36549547    -0.19110
H1210       H  0.26898535  0.74822398  0.36826703     0.18650
H1211       H  0.27136649  0.66554751  0.42129360     0.18660
F1212       F  0.32132603  0.71717287  0.42396250    -0.19100
C1213       C  0.34816314  0.90600228  0.73257707    -0.20540
C1214       C  0.32088595  0.88636096  0.71853280    -0.08580
C1215       C  0.29415529  0.86738868  0.73334320     0.30280
C1216       C  0.29506256  0.86827124  0.76170281    -0.20540
C1217       C  0.32254979  0.88807098  0.77559708    -0.08590
C1218       C  0.34909143  0.90704090  0.76055999     0.30290
F1219       F  0.37606919  0.92735535  0.77270541    -0.19110
H1220       H  0.36905048  0.92127936  0.72186791     0.18650
H1221       H  0.27431291  0.85346008  0.77276406     0.18660
F1222       F  0.26735350  0.84789938  0.72055930    -0.19100
C1223       C  0.22774295  0.75642977  0.61165259    -0.20540
C1224       C  0.23441804  0.78549419  0.60241048    -0.08580
C1225       C  0.21130865  0.78867442  0.58920931     0.30280
C1226       C  0.18150485  0.76371586  0.58702492    -0.20540
C1227       C  0.17419384  0.73527719  0.59811054    -0.08590
C1228       C  0.19760049  0.73143703  0.60982320     0.30290
F1229       F  0.19081079  0.70419391  0.62121044    -0.19110
H1230       H  0.24521174  0.75363038  0.62201362     0.18650
H1231       H  0.16361887  0.76716210  0.57840204     0.18660
F1232       F  0.21724249  0.81644762  0.57970880    -0.19100
C1233       C  0.44535724  0.55024594  0.64916811    -0.20420
C1234       C  0.45181206  0.57121064  0.62806169    -0.08580
C1235       C  0.43303489  0.56156512  0.60476083     0.30280
C1236       C  0.40975734  0.53068797  0.60196529    -0.20540
C1237       C  0.40481440  0.50913954  0.62241418    -0.08590
C1238       C  0.42222252  0.51970607  0.64656618     0.30290
F1239       F  0.41830459  0.00032507  0.66729569    -0.19110
H1240       H  0.45952315  0.55718307  0.66730384     0.18650
H1241       H  0.39658399  0.52339720  0.58330629     0.18660
F1242       F  0.43886873  0.58121340  0.58381472    -0.19100
C1243       C  0.19697742  0.90884330  0.60321976    -0.20540
C1244       C  0.20305600  0.93916827  0.60531660    -0.08580
C1245       C  0.23373022  0.96343275  0.60476330     0.30280
C1246       C  0.25776768  0.95706037  0.60221151    -0.20540
C1247       C  0.25125492  0.92650598  0.60057758    -0.08590
C1248       C  0.22065767  0.90254774  0.60113140     0.30290
F1249       F  0.21369556  0.87280197  0.60035719    -0.19110
H1250       H  0.17360820  0.88968508  0.60377322     0.18650
H1251       H  0.28135465  0.97576427  0.60251726     0.18660
F1252       F  0.24037338  0.49299842  0.60640108    -0.19100
C1253       C  0.43188807  0.86189527  0.63052410    -0.20540
C1254       C  0.42338571  0.88213062  0.61926245    -0.08580
C1255       C  0.44518037  0.90826413  0.60525609     0.30280
C1256       C  0.47531083  0.91493476  0.60359638    -0.20540
C1257       C  0.48470032  0.89598603  0.61615184    -0.08590
C1258       C  0.46256366  0.86886982  0.62916835     0.30290
F1259       F  0.47060161  0.84954179  0.64096762    -0.19110
H1260       H  0.41524585  0.84162835  0.64132949     0.18650
H1261       H  0.49159745  0.93584096  0.59332372     0.18660
F1262       F  0.43744124  0.92799091  0.59372662    -0.19100
C1263       C  0.35251966  0.84515130  0.48227120    -0.20540
C1264       C  0.38417805  0.86153187  0.47704045    -0.08580
C1265       C  0.40326596  0.88755065  0.49282520     0.30280
C1266       C  0.39089010  0.89642133  0.51381812    -0.20540
C1267       C  0.35925519  0.87982243  0.51913141    -0.08590
C1268       C  0.34016530  0.85416223  0.50305822     0.30290
F1269       F  0.30956995  0.83746151  0.50786940    -0.19110
H1270       H  0.33721049  0.82554198  0.46993224     0.18650
H1271       H  0.40620694  0.91543676  0.52672336     0.18660
F1272       F  0.43399993  0.90362318  0.48862156    -0.19100
Zn1273     Zn  0.83461076  0.42166155  0.58594310     1.49720
Zn1274     Zn  0.83107707  0.35610312  0.60157748     1.49360
Zn1275     Zn  0.86131842  0.41237731  0.63992158     1.49110
Zn1276     Zn  0.79182984  0.37698056  0.63381623     1.49480
O1277       O  0.82927198  0.39181377  0.61441547    -1.83360
O1278       O  0.84636770  0.40814498  0.55034778    -0.73990
O1279       O  0.86845763  0.35477208  0.61653205    -0.73810
O1280       O  0.88056680  0.45746387  0.63726849    -0.73320
O1281       O  0.84125610  0.36310505  0.56266591    -0.74000
O1282       O  0.86876237  0.46538378  0.59599287    -0.73600
O1283       O  0.89334361  0.40273785  0.63189803    -0.74190
O1284       O  0.79678870  0.37642524  0.67469763    -0.73580
O1285       O  0.78939587  0.31615376  0.60342183    -0.74330
O1286       O  0.84751335  0.40065934  0.67740522    -0.73720
O1287       O  0.76183802  0.33511376  0.62051779    -0.74190
O1288       O  0.77377113  0.40255936  0.62391532    -0.74100
O1289       O  0.79554683  0.42529834  0.58487131    -0.73890
C1290       C  0.84790126  0.38404888  0.54519078     0.77900
C1291       C  0.89324599  0.37898589  0.62354683     0.78390
C1292       C  0.88333312  0.47568379  0.61827716     0.77350
C1293       C  0.82145914  0.38737214  0.68866925     0.77730
C1294       C  0.76358892  0.31343320  0.60938852     0.78860
C1295       C  0.77535855  0.41838371  0.60321921     0.77910
Zn1296     Zn  0.86426343  0.32730558  0.36364785     1.49720
Zn1297     Zn  0.92361663  0.37309952  0.39790760     1.49360
Zn1298     Zn  0.89014818  0.30486826  0.41325969     1.49110
Zn1299     Zn  0.92718206  0.32640018  0.35970760     1.49480
O1300       O  0.90085168  0.33259296  0.38321627    -1.83360
O1301       O  0.86105465  0.36623466  0.36730835    -0.73990
O1302       O  0.91311161  0.37478889  0.43677943    -0.73810
O1303       O  0.84796337  0.27121495  0.40625220    -0.73320
O1304       O  0.90976641  0.39843025  0.37913270    -0.74000
O1305       O  0.82639955  0.28747526  0.37603337    -0.73600
O1306       O  0.88626286  0.32527641  0.44748592    -0.74190
O1307       O  0.93049632  0.29055600  0.37133062    -0.73580
O1308       O  0.96868425  0.39321357  0.39072893    -0.74330
O1309       O  0.91613879  0.28372708  0.41429256    -0.73720
O1310       O  0.96990528  0.36218198  0.35971201    -0.74190
O1311       O  0.91216430  0.32142346  0.32178456    -0.74100
O1312       O  0.86891819  0.32287389  0.32330879    -0.73890
C1313       C  0.88379264  0.39343322  0.37064611     0.77900
C1314       C  0.89586077  0.35342940  0.45296974     0.78390
C1315       C  0.82487374  0.26687555  0.39222548     0.77350
C1316       C  0.92768855  0.27752156  0.39405724     0.77730
C1317       C  0.98298235  0.38676992  0.37338963     0.78860
C1318       C  0.88956422  0.32129757  0.31001122     0.77910
Zn1319     Zn  0.66934252  0.09725313  0.35599204     1.49720
Zn1320     Zn  0.69315878  0.07891009  0.40959378     1.49360
Zn1321     Zn  0.62685169  0.04609951  0.39413075     1.49110
Zn1322     Zn  0.66902008  0.03292275  0.35874937     1.49480
O1323       O  0.66591716  0.06431794  0.37887593    -1.83360
O1324       O  0.70486573  0.13665670  0.36923003    -0.73990
O1325       O  0.67335738  0.05608968  0.44476651    -0.73810
O1326       O  0.61011377  0.07368807  0.39379803    -0.73320
O1327       O  0.71548798  0.12539412  0.41024934    -0.74000
O1328       O  0.63175457  0.10217793  0.35749781    -0.73600
O1329       O  0.62497878  0.02950128  0.43099910    -0.74190
O1330       O  0.62887045  0.49149220  0.36163556    -0.73580
O1331       O  0.72476099  0.06799058  0.40365929    -0.74330
O1332       O  0.59912684  0.51053828  0.37241133    -0.73720
O1333       O  0.70689172  0.03168718  0.37208751    -0.74190
O1334       O  0.67428421  0.04443299  0.31881357    -0.74100
O1335       O  0.67515608  0.08893114  0.31737676    -0.73890
C1336       C  0.71979674  0.14473422  0.39149482     0.77900
C1337       C  0.64548611  0.03549827  0.44884246     0.78390
C1338       C  0.61103995  0.09184104  0.37542882     0.77350
C1339       C  0.60237972  0.48860060  0.36424257     0.77730
C1340       C  0.72734883  0.04856840  0.38952353     0.78860
C1341       C  0.67608057  0.06706760  0.30549562     0.77910
Zn1342     Zn  0.61069302  0.41602111  0.58578949     1.49720
Zn1343     Zn  0.58065444  0.45392204  0.59873396     1.49360
Zn1344     Zn  0.57219674  0.40379551  0.63855653     1.49110
Zn1345     Zn  0.63799374  0.46619074  0.63463530     1.49480
O1346       O  0.60121305  0.43509944  0.61490838    -1.83360
O1347       O  0.61398650  0.43764971  0.54943443    -0.73990
O1348       O  0.53535600  0.42813951  0.60085683    -0.73810
O1349       O  0.57094273  0.36488795  0.63072829    -0.73320
O1350       O  0.59342548  0.46576722  0.56084871    -0.74000
O1351       O  0.58469723  0.36858283  0.58769969    -0.73600
O1352       O  0.52872683  0.39514108  0.63345167    -0.74190
O1353       O  0.63206526  0.45623353  0.67520970    -0.73580
O1354       O  0.59316231  0.99273375  0.61719919    -0.74330
O1355       O  0.58531103  0.41508903  0.67689819    -0.73720
O1356       O  0.64125293  0.00877466  0.63082497    -0.74190
O1357       O  0.67600780  0.46370182  0.62236843    -0.74100
O1358       O  0.65271302  0.42482413  0.59331416    -0.73890
C1359       C  0.60708779  0.45823921  0.54388001     0.77900
C1360       C  0.51785968  0.40648066  0.61665967     0.78390
C1361       C  0.57428069  0.35294860  0.60947381     0.77350
C1362       C  0.60948748  0.43570941  0.68870391     0.77730
C1363       C  0.61892449  0.01352443  0.62631952     0.78860
C1364       C  0.67626378  0.44356097  0.60691166     0.77910
Zn1365     Zn  0.52493753  0.16248162  0.60579662     1.49720
Zn1366     Zn  0.54788109  0.12958721  0.64549815     1.49360
Zn1367     Zn  0.58258226  0.15460328  0.58999685     1.49110
Zn1368     Zn  0.58807826  0.19883178  0.63847870     1.49480
O1369       O  0.56098937  0.16164933  0.61928599    -1.83360
O1370       O  0.98486231  0.12498422  0.61855746    -0.73990
O1371       O  0.57312967  0.10931021  0.64292003    -0.73810
O1372       O  0.55577441  0.14229688  0.55480515    -0.73320
O1373       O  0.00443675  0.09873354  0.63823209    -0.74000
O1374       O  0.52102480  0.15465555  0.56666961    -0.73600
O1375       O  0.59246520  0.12157601  0.60165488    -0.74190
O1376       O  0.63093428  0.21562911  0.62549587    -0.73580
O1377       O  0.55069851  0.14475002  0.68330665    -0.74330
O1378       O  0.62519482  0.19286917  0.58556559    -0.73720
O1379       O  0.58609615  0.19393150  0.67928863    -0.74190
O1380       O  0.57601336  0.22994670  0.62952263    -0.74100
O1381       O  0.52977829  0.20502854  0.60988119    -0.73890
C1382       C  0.98170002  0.10011104  0.62853910     0.77900
C1383       C  0.58873805  0.10719881  0.62393176     0.78390
C1384       C  0.53231270  0.14494225  0.54925529     0.77350
C1385       C  0.64178213  0.21300283  0.60325589     0.77730
C1386       C  0.56829404  0.17091173  0.69379268     0.78860
C1387       C  0.55288163  0.22973799  0.61871423     0.77910
Zn1388     Zn  0.96310700  0.13074962  0.36388738     1.49720
Zn1389     Zn  0.89805855  0.06862105  0.35801696     1.49360
Zn1390     Zn  0.94392448  0.07104656  0.39835386     1.49110
Zn1391     Zn  0.91405783  0.10776648  0.41202153     1.49480
O1392       O  0.92958130  0.09562586  0.38251684    -1.83360
O1393       O  0.95448912  0.12601047  0.32314999    -0.73990
O1394       O  0.89178526  0.02611049  0.35756074    -0.73810
O1395       O  0.47910845  0.07923774  0.37685135    -0.73320
O1396       O  0.90834540  0.08385605  0.32045192    -0.74000
O1397       O  0.50332250  0.12961690  0.37032450    -0.73600
O1398       O  0.91492570  0.02543904  0.39569914    -0.74190
O1399       O  0.93665716  0.10958901  0.44718331    -0.73580
O1400       O  0.85876136  0.06405816  0.36946822    -0.74330
O1401       O  0.96072279  0.08490887  0.43578920    -0.73720
O1402       O  0.86727760  0.08185646  0.41166824    -0.74190
O1403       O  0.92523158  0.15106586  0.40561844    -0.74100
O1404       O  0.96360055  0.17008365  0.37614298    -0.73890
C1405       C  0.93175061  0.10587290  0.30931387     0.77900
C1406       C  0.89834335  0.01183824  0.37512721     0.78390
C1407       C  0.50365229  0.10448032  0.37279307     0.77350
C1408       C  0.95611959  0.10111977  0.45250813     0.77730
C1409       C  0.84904212  0.06800479  0.39178052     0.78860
C1410       C  0.94557034  0.17342549  0.39196473     0.77910
Zn1411     Zn  0.86598720  0.41441453  0.85418612     1.49720
Zn1412     Zn  0.79546942  0.37996251  0.85998655     1.49360
Zn1413     Zn  0.83492118  0.35913882  0.89319898     1.49110
Zn1414     Zn  0.83713311  0.42366772  0.90777073     1.49480
O1415       O  0.83348640  0.39461348  0.87945220    -1.83360
O1416       O  0.85019392  0.40423252  0.81678279    -0.73990
O1417       O  0.76476059  0.33909589  0.87490896    -0.73810
O1418       O  0.86989664  0.35491453  0.87789337    -0.73320
O1419       O  0.79953702  0.37743574  0.81941175    -0.74000
O1420       O  0.89682638  0.40114604  0.85915671    -0.73600
O1421       O  0.79243888  0.32029741  0.89319110    -0.74190
O1422       O  0.84865593  0.41041932  0.94441793    -0.73580
O1423       O  0.77919112  0.40779693  0.86687534    -0.74330
O1424       O  0.84816632  0.36805966  0.93117509    -0.73720
O1425       O  0.79810127  0.42785573  0.90731316    -0.74190
O1426       O  0.87100255  0.46720662  0.89729451    -0.74100
O1427       O  0.88664662  0.45965159  0.85796023    -0.73890
C1428       C  0.82395882  0.38972144  0.80547449     0.77900
C1429       C  0.76659376  0.31773958  0.88702107     0.78390
C1430       C  0.89469930  0.37632315  0.86771962     0.77350
C1431       C  0.85322213  0.38792325  0.94912365     0.77730
C1432       C  0.77993357  0.42338171  0.88725958     0.78860
C1433       C  0.88727217  0.47767286  0.87605462     0.77910
Zn1434     Zn  0.87945125  0.29666980  0.13877994     1.49720
Zn1435     Zn  0.91692133  0.36551192  0.14554661     1.49360
Zn1436     Zn  0.92266603  0.33746687  0.09077522     1.49110
Zn1437     Zn  0.85930524  0.33667238  0.10737153     1.49480
O1438       O  0.89478974  0.33416694  0.11977328    -1.83360
O1439       O  0.87584024  0.30068826  0.17916066    -0.73990
O1440       O  0.96202612  0.38384060  0.14179351    -0.73810
O1441       O  0.92634360  0.29830598  0.09105612    -0.73320
O1442       O  0.90602389  0.35113802  0.18347438    -0.74000
O1443       O  0.90748987  0.28102411  0.13203901    -0.73600
O1444       O  0.96678317  0.37122187  0.10010239    -0.74190
O1445       O  0.86661822  0.34872608  0.06908653    -0.73580
O1446       O  0.90753189  0.39800057  0.13732837    -0.74330
O1447       O  0.90840022  0.34897271  0.05479379    -0.73720
O1448       O  0.85936084  0.37462474  0.12205107    -0.74190
O1449       O  0.81933504  0.29424637  0.10788292    -0.74100
O1450       O  0.83920708  0.26627677  0.12307668    -0.73890
C1451       C  0.88940149  0.32468848  0.19375505     0.77900
C1452       C  0.97876491  0.38582483  0.12203196     0.78390
C1453       C  0.92256932  0.28111076  0.11158696     0.77350
C1454       C  0.88585692  0.35362635  0.05069532     0.77730
C1455       C  0.88431543  0.39905314  0.12853070     0.78860
C1456       C  0.81729609  0.26824118  0.11227439     0.77910
Zn1457     Zn  0.66856295  0.03169000  0.13491286     1.49720
Zn1458     Zn  0.66863777  0.09551818  0.13702521     1.49360
Zn1459     Zn  0.69347449  0.07880115  0.08473758     1.49110
Zn1460     Zn  0.62423096  0.04437986  0.09806970     1.49480
O1461       O  0.66437227  0.06269821  0.11413857    -1.83360
O1462       O  0.67239437  0.04228271  0.17502089    -0.73990
O1463       O  0.70366482  0.13547435  0.12441752    -0.73810
O1464       O  0.72650151  0.06936952  0.09262545    -0.73320
O1465       O  0.67450358  0.08733084  0.17582957    -0.74000
O1466       O  0.70873371  0.03312043  0.12435809    -0.73600
O1467       O  0.71489497  0.12591951  0.08351365    -0.74190
O1468       O  0.62457266  0.03152959  0.06019842    -0.73580
O1469       O  0.63211841  0.10150733  0.13449499    -0.74330
O1470       O  0.67389913  0.05532795  0.04962069    -0.73720
O1471       O  0.60527738  0.07103579  0.10051039    -0.74190
O1472       O  0.59704700  0.50490040  0.11614866    -0.74100
O1473       O  0.62915824  0.48930681  0.13030738    -0.73890
C1474       C  0.67479578  0.06514251  0.18806412     0.77900
C1475       C  0.71834627  0.14469962  0.10236729     0.78390
C1476       C  0.72973398  0.05078209  0.10787431     0.77350
C1477       C  0.64579897  0.03630362  0.04392229     0.77730
C1478       C  0.60994337  0.09171058  0.11761708     0.78860
C1479       C  0.60204934  0.48407835  0.12491575     0.77910
Zn1480     Zn  0.57390966  0.39893118  0.85606881     1.49720
Zn1481     Zn  0.63540687  0.46459257  0.85981310     1.49360
Zn1482     Zn  0.57664803  0.44409443  0.89719250     1.49110
Zn1483     Zn  0.61763499  0.41748065  0.90919841     1.49480
O1484       O  0.60179225  0.43124643  0.88002749    -1.83360
O1485       O  0.58786002  0.40869355  0.81768636    -0.73990
O1486       O  0.63314782  0.00400962  0.86423927    -0.73810
O1487       O  0.53105551  0.41446911  0.89469033    -0.73320
O1488       O  0.62909263  0.45534299  0.81951926    -0.74000
O1489       O  0.53072576  0.39180810  0.85647317    -0.73600
O1490       O  0.58482392  0.98149547  0.87859949    -0.74190
O1491       O  0.62050994  0.43960793  0.94474738    -0.73580
O1492       O  0.67626072  0.46659523  0.86999753    -0.74330
O1493       O  0.58998474  0.45804873  0.93488219    -0.73720
O1494       O  0.66095237  0.42975872  0.90121647    -0.74190
O1495       O  0.59340754  0.37073527  0.90943624    -0.74100
O1496       O  0.57081069  0.35992713  0.86867835    -0.73890
C1497       C  0.60920964  0.43226761  0.80598937     0.77900
C1498       C  0.60849356  0.00452708  0.86887749     0.78390
C1499       C  0.51669611  0.39761008  0.87452968     0.77350
C1500       C  0.60866875  0.45590047  0.95087608     0.77730
C1501       C  0.68155620  0.44959266  0.88589036     0.78860
C1502       C  0.57790012  0.35157687  0.89065761     0.77910
Zn1503     Zn  0.59696866  0.16744906  0.86061388     1.49720
Zn1504     Zn  0.53257579  0.16650231  0.86308601     1.49360
Zn1505     Zn  0.54381378  0.12074106  0.89818020     1.49110
Zn1506     Zn  0.57966255  0.18884470  0.91350367     1.49480
O1507       O  0.56333125  0.16125021  0.88328391    -1.83360
O1508       O  0.58937044  0.17519468  0.82213518    -0.73990
O1509       O  0.98939861  0.12832859  0.86722122    -0.73810
O1510       O  0.56801718  0.10017109  0.89153657    -0.73320
O1511       O  0.54283451  0.16992615  0.82315200    -0.74000
O1512       O  0.60186171  0.13041613  0.86076862    -0.73600
O1513       O  0.00422763  0.09529090  0.87984900    -0.74190
O1514       O  0.55559131  0.16875842  0.94751230    -0.73580
O1515       O  0.53546930  0.20700948  0.87432817    -0.74330
O1516       O  0.53081476  0.11942700  0.93670643    -0.73720
O1517       O  0.57155200  0.22239416  0.90624887    -0.74190
O1518       O  0.62640467  0.21029535  0.91608283    -0.74100
O1519       O  0.63671346  0.20186787  0.87444900    -0.73890
C1520       C  0.56624812  0.17389533  0.81013080     0.77900
C1521       C  0.98368873  0.10094973  0.87164828     0.78390
C1522       C  0.58902882  0.10582966  0.87459604     0.77350
C1523       C  0.53584931  0.14089154  0.95298293     0.77730
C1524       C  0.55382154  0.22719763  0.89123685     0.78860
C1525       C  0.64541534  0.21541249  0.89714559     0.77910
Zn1526     Zn  0.94931710  0.08367732  0.14281311     1.49720
Zn1527     Zn  0.91325011  0.11788571  0.13940215     1.49360
Zn1528     Zn  0.97289686  0.14156425  0.10497763     1.49110
Zn1529     Zn  0.91122435  0.07775964  0.08899237     1.49480
O1530       O  0.93656492  0.10509371  0.11855280    -1.83360
O1531       O  0.94482279  0.09092751  0.18176040    -0.73990
O1532       O  0.92561589  0.16102657  0.12983119    -0.73810
O1533       O  0.51253144  0.14384575  0.11776601    -0.73320
O1534       O  0.92040135  0.11718348  0.17955162    -0.74000
O1535       O  0.99287226  0.09705604  0.13566195    -0.73600
O1536       O  0.97047205  0.18047678  0.10894739    -0.74190
O1537       O  0.93529160  0.09192981  0.05293390    -0.73580
O1538       O  0.86851997  0.09096031  0.13039131    -0.74330
O1539       O  0.97533967  0.13639987  0.06593828    -0.73720
O1540       O  0.86902148  0.07458366  0.08873674    -0.74190
O1541       O  0.90147430  0.03400613  0.09662461    -0.74100
O1542       O  0.92569135  0.03887301  0.13578332    -0.73890
C1543       C  0.93307034  0.10501898  0.19314482     0.77900
C1544       C  0.94869488  0.18332236  0.11851731     0.78390
C1545       C  0.51537734  0.12149013  0.12635168     0.77350
C1546       C  0.96089107  0.11630382  0.04790365     0.77730
C1547       C  0.85468537  0.07749515  0.10860611     0.78860
C1548       C  0.90861617  0.02250714  0.11644930     0.77910
C1549       C  0.97608507  0.09735203  0.00753005    -0.20540
C1550       C  0.97636323  0.12159949  0.02149804    -0.08580
C1551       C  0.99624584  0.15190640  0.01271122     0.30280
C1552       C  0.51600398  0.15781032  0.99111562    -0.20540
C1553       C  0.51647286  0.13375876  0.97745635    -0.08590
C1554       C  0.49588593  0.10326984  0.98570380     0.30290
F1555       F  0.49518787  0.07915354  0.97306505    -0.19110
H1556       H  0.96150222  0.07389314  0.01423547     0.18650
H1557       H  0.53078081  0.18142717  0.98490834     0.18660
F1558       F  0.99687052  0.17604696  0.02528145    -0.19100
C1559       C  0.54499286  0.29653197  0.87726863    -0.20540
C1560       C  0.56872099  0.31889662  0.89359787    -0.08580
C1561       C  0.58524346  0.31005358  0.91074371     0.30280
C1562       C  0.57905141  0.27986389  0.91059939    -0.20540
C1563       C  0.55641418  0.25772207  0.89328875    -0.08590
C1564       C  0.53878191  0.26618053  0.87710143     0.30290
F1565       F  0.01628140  0.24556064  0.86052248    -0.19110
H1566       H  0.53172086  0.30273643  0.86402542     0.18650
H1567       H  0.59307426  0.27423765  0.92342568     0.18660
F1568       F  0.60875832  0.33090038  0.92639523    -0.19100
C1569       C  0.63113269  0.06175770  0.86898470    -0.20540
C1570       C  0.60610558  0.03211184  0.86433220    -0.08580
C1571       C  0.57671436  0.02821335  0.85977088     0.30280
C1572       C  0.57191327  0.05273098  0.86270529    -0.20540
C1573       C  0.59630272  0.08178270  0.86932186    -0.08590
C1574       C  0.62628425  0.08672033  0.87122539     0.30290
F1575       F  0.65030622  0.11503113  0.87703837    -0.19110
H1576       H  0.65389706  0.06524139  0.87253090     0.18650
H1577       H  0.54883831  0.04888221  0.86033662     0.18660
F1578       F  0.55216585  0.50026152  0.85368829    -0.19100
C1579       C  0.65701539  0.00796004  0.00865100    -0.20540
C1580       C  0.63722075  0.01730083  0.01909024    -0.08580
C1581       C  0.60760327  0.00497812  0.00774199     0.30280
C1582       C  0.59824130  0.48421790  0.98631477    -0.20540
C1583       C  0.61784748  0.47465357  0.97590929    -0.08590
C1584       C  0.64739631  0.48666161  0.98740727     0.30290
F1585       F  0.66737740  0.47866071  0.97760058    -0.19110
H1586       H  0.67970094  0.01659432  0.01737778     0.18650
H1587       H  0.57552736  0.47570052  0.97768616     0.18660
F1588       F  0.58767197  0.01326589  0.01714806    -0.19100
C1589       C  0.58709229  0.11882794  0.14174037    -0.20540
C1590       C  0.58882864  0.10404622  0.11835489    -0.08580
C1591       C  0.56900504  0.09975329  0.09642915     0.30280
C1592       C  0.54695794  0.10852623  0.09854352    -0.20540
C1593       C  0.54403661  0.12142099  0.12247558    -0.08590
C1594       C  0.56454858  0.12708432  0.14395107     0.30290
F1595       F  0.56167187  0.13897440  0.16747873    -0.19110
H1596       H  0.60209261  0.12250164  0.15889876     0.18650
H1597       H  0.53080038  0.10346746  0.08201016     0.18660
F1598       F  0.57009444  0.08609242  0.07328676    -0.19100
C1599       C  0.80291131  0.05269668  0.12968331    -0.20540
C1600       C  0.82127585  0.06561464  0.10673209    -0.08580
C1601       C  0.80794290  0.06957868  0.08315800     0.30280
C1602       C  0.77741780  0.06278594  0.08325516    -0.20540
C1603       C  0.75945469  0.05148558  0.10668677    -0.08590
C1604       C  0.77216027  0.04531330  0.12963269     0.30290
F1605       F  0.75569689  0.03432125  0.15261637    -0.19110
H1606       H  0.81272367  0.04921099  0.14802081     0.18650
H1607       H  0.76818635  0.06763852  0.06523425     0.18660
F1608       F  0.82503294  0.08226724  0.06073011    -0.19100
C1609       C  0.52452874  0.42478800  0.14820034    -0.20540
C1610       C  0.51257346  0.40659188  0.12480573    -0.08580
C1611       C  0.53297259  0.41044658  0.10392801     0.30280
C1612       C  0.56384763  0.43383668  0.10556051    -0.20540
C1613       C  0.57487511  0.45346425  0.12800700    -0.08590
C1614       C  0.55524196  0.44813660  0.14969225     0.30290
F1615       F  0.56507737  0.46735857  0.17125920    -0.19110
H1616       H  0.50968455  0.42231426  0.16481381     0.18650
H1617       H  0.57854936  0.43818197  0.08834207     0.18660
F1618       F  0.52284409  0.39299951  0.08126575    -0.19100
C1619       C  0.76895521  0.18727163  0.08685229    -0.20540
C1620       C  0.74100696  0.17788300  0.09972543    -0.08580
C1621       C  0.73686045  0.20004510  0.11327556     0.30280
C1622       C  0.76102680  0.23051995  0.11537426    -0.20540
C1623       C  0.78972663  0.23910727  0.10446076    -0.08590
C1624       C  0.79324155  0.21747822  0.08948078     0.30290
F1625       F  0.82080221  0.22521644  0.07860746    -0.19110
H1626       H  0.77277863  0.17071160  0.07642386     0.18650
H1627       H  0.75796625  0.24679208  0.12711320     0.18660
F1628       F  0.70988409  0.19192994  0.12552146    -0.19100
C1629       C  0.86420023  0.43591044  0.12492181    -0.20540
C1630       C  0.88852464  0.42990649  0.12379731    -0.08580
C1631       C  0.91818433  0.45412572  0.11742687     0.30280
C1632       C  0.92371131  0.48376975  0.11399710    -0.20540
C1633       C  0.89996409  0.49011078  0.11631640    -0.08590
C1634       C  0.86992887  0.46606059  0.12132398     0.30290
F1635       F  0.84665305  0.47194468  0.12391838    -0.19110
H1636       H  0.84116199  0.41758687  0.12936649     0.18650
H1637       H  0.94691534  0.50210336  0.10996676     0.18660
F1638       F  0.94209819  0.44924995  0.11430508    -0.19100
C1639       C  0.93605516  0.24748099  0.13796420    -0.20540
C1640       C  0.93507504  0.26003248  0.11271339    -0.08580
C1641       C  0.94374655  0.25025594  0.08958230     0.30280
C1642       C  0.95086564  0.22670048  0.09169010    -0.20540
C1643       C  0.94923464  0.21270507  0.11676935    -0.08590
C1644       C  0.94273405  0.22397510  0.13996389     0.30290
F1645       F  0.94142287  0.21118147  0.16451328    -0.19110
H1646       H  0.93030414  0.25493640  0.15631926     0.18650
H1647       H  0.95559287  0.21800925  0.07354207     0.18660
F1648       F  0.94342587  0.26190468  0.06487000    -0.19100
C1649       C  0.68542147  0.26786687  0.91089895    -0.20540
C1650       C  0.67800895  0.23924492  0.90028950    -0.08580
C1651       C  0.70127439  0.23568699  0.88843456     0.30280
C1652       C  0.73105121  0.26091426  0.88591118    -0.20540
C1653       C  0.73763050  0.29004333  0.89445129    -0.08590
C1654       C  0.71485200  0.29319224  0.90766289     0.30290
F1655       F  0.72074677  0.32112296  0.91638592    -0.19110
H1656       H  0.66781254  0.27118226  0.91982723     0.18650
H1657       H  0.74834057  0.25812155  0.87569678     0.18660
F1658       F  0.69481802  0.20815213  0.87820051    -0.19100
C1659       C  0.91020690  0.03231881  0.89187454    -0.20540
C1660       C  0.90784061  0.01129743  0.87212269    -0.08580
C1661       C  0.92662408  0.02272864  0.84907295     0.30280
C1662       C  0.94894202  0.05373951  0.84725427    -0.20540
C1663       C  0.95298863  0.07407503  0.86806063    -0.08590
C1664       C  0.93269386  0.06347771  0.88992241     0.30290
F1665       F  0.93667846  0.08259730  0.91068755    -0.19110
H1666       H  0.89587656  0.02440656  0.90961227     0.18650
H1667       H  0.96494254  0.06137412  0.83063546     0.18660
F1668       F  0.92511143  0.50376992  0.82906105    -0.19100
C1669       C  0.72728820  0.45293960  0.90956489    -0.20540
C1670       C  0.71119487  0.45037982  0.88539109    -0.08580
C1671       C  0.71992723  0.44194534  0.86170422     0.30280
C1672       C  0.74317206  0.43460131  0.86248749    -0.20540
C1673       C  0.75842919  0.43557176  0.88688214    -0.08590
C1674       C  0.75109350  0.44613445  0.91028874     0.30290
F1675       F  0.76559389  0.44823952  0.93412305    -0.19110
H1676       H  0.72052983  0.45900596  0.92814255     0.18650
H1677       H  0.74835280  0.42690964  0.84397034     0.18660
F1678       F  0.70402075  0.43796590  0.83829844    -0.19100
C1679       C  0.96397549  0.37427659  0.89358436    -0.20540
C1680       C  0.98355498  0.38612672  0.87132557    -0.08580
C1681       C  0.97188891  0.39001524  0.84661285     0.30280
C1682       C  0.94184458  0.38450960  0.84491597    -0.20540
C1683       C  0.92268165  0.37405001  0.86751781    -0.08590
C1684       C  0.93354347  0.36772084  0.89159256     0.30290
F1685       F  0.91569916  0.35795122  0.91387644    -0.19110
H1686       H  0.97258724  0.37110438  0.91277126     0.18650
H1687       H  0.93399682  0.38987920  0.82630412     0.18660
F1688       F  0.99034728  0.40175455  0.82480395    -0.19100
C1689       C  0.88348019  0.36985916  0.97575762    -0.20540
C1690       C  0.86516218  0.38374033  0.97545553    -0.08580
C1691       C  0.85632872  0.39009854  0.00013508     0.30280
C1692       C  0.86410948  0.38103005  0.02440145    -0.20540
C1693       C  0.88115968  0.36574264  0.02463915    -0.08590
C1694       C  0.89162594  0.36116317  0.00001899     0.30290
F1695       F  0.90825976  0.34684735  0.99918250    -0.19110
H1696       H  0.89081433  0.36493080  0.95704489     0.18650
H1697       H  0.85611796  0.38538309  0.04307880     0.18660
F1698       F  0.83861129  0.40325604  0.00080461    -0.19100
C1699       C  0.92170356  0.07865122  0.23723581    -0.20540
C1700       C  0.93324112  0.10613817  0.22276136    -0.08580
C1701       C  0.94481738  0.13402489  0.23677632     0.30280
C1702       C  0.94498358  0.13421401  0.26511059    -0.20540
C1703       C  0.93267722  0.10650303  0.27956705    -0.08590
C1704       C  0.92098606  0.07868621  0.26533606     0.30290
F1705       F  0.90946118  0.05149229  0.27863820    -0.19110
H1706       H  0.91277816  0.05700105  0.22668507     0.18650
H1707       H  0.95417064  0.15583876  0.27572637     0.18660
F1708       F  0.95657211  0.16098220  0.22309385    -0.19100
C1709       C  0.53982005  0.15819016  0.73707815    -0.20540
C1710       C  0.56778874  0.17423146  0.72334803    -0.08580
C1711       C  0.59501422  0.19196368  0.73823811     0.30280
C1712       C  0.59428498  0.19239628  0.76648276    -0.20540
C1713       C  0.56635049  0.17585415  0.78028614    -0.08590
C1714       C  0.53896399  0.15926870  0.76524190     0.30290
F1715       F  0.51154052  0.14274217  0.77775650    -0.19110
H1716       H  0.51856214  0.14450080  0.72594080     0.18650
H1717       H  0.61566888  0.20533309  0.77762424     0.18660
F1718       F  0.62246621  0.20750878  0.72560944    -0.19100
C1719       C  0.99343944  0.09909950  0.48561216    -0.20540
C1720       C  0.97536410  0.11192416  0.47755379    -0.08580
C1721       C  0.97827302  0.13706962  0.49220378     0.30280
C1722       C  0.49817857  0.14851161  0.51445665    -0.20540
C1723       C  0.51578083  0.13536934  0.52287395    -0.08590
C1724       C  0.51337194  0.11058351  0.50806373     0.30290
F1725       F  0.52911380  0.09654820  0.51595574    -0.19110
H1726       H  0.99199778  0.07993560  0.47461214     0.18650
H1727       H  0.49947225  0.16761230  0.52548082     0.18660
F1728       F  0.96234877  0.15111038  0.48485716    -0.19100
C1729       C  0.58359335  0.41532058  0.73278956    -0.20540
C1730       C  0.61052074  0.43537592  0.71875456    -0.08580
C1731       C  0.63740649  0.45448413  0.73379266     0.30280
C1732       C  0.63703920  0.45335400  0.76215411    -0.20540
C1733       C  0.61002537  0.43306757  0.77601766    -0.08590
C1734       C  0.58323322  0.41414166  0.76091173     0.30290
F1735       F  0.55623200  0.39504805  0.77324151    -0.19110
H1736       H  0.56237967  0.40053528  0.72199071     0.18650
H1737       H  0.65796377  0.46825648  0.77328050     0.18660
F1738       F  0.66405907  0.47406068  0.72123307    -0.19100
C1739       C  0.56503809  0.27935069  0.63855891    -0.20540
C1740       C  0.55399747  0.25942987  0.61643245    -0.08580
C1741       C  0.54870325  0.27001768  0.59168885     0.30280
C1742       C  0.55540722  0.30057425  0.58911902    -0.20540
C1743       C  0.56679737  0.32057790  0.61135274    -0.08590
C1744       C  0.57113570  0.30941369  0.63623213     0.30290
F1745       F  0.58269273  0.32798509  0.65816214    -0.19110
H1746       H  0.56968719  0.27176354  0.65765960     0.18650
H1747       H  0.55180180  0.30860724  0.56983182     0.18660
F1748       F  0.53874884  0.25142014  0.56972377    -0.19100
C1749       C  0.60302961  0.04489538  0.65118076    -0.20540
C1750       C  0.62139391  0.04336214  0.63098795    -0.08580
C1751       C  0.63220833  0.06540812  0.61028026     0.30280
C1752       C  0.62273769  0.08715921  0.60873687    -0.20540
C1753       C  0.60224346  0.08714621  0.62778549    -0.08590
C1754       C  0.59358646  0.06655397  0.64978264     0.30290
F1755       F  0.57400900  0.06553233  0.66886336    -0.19110
H1756       H  0.59373534  0.02748498  0.66683728     0.18650
H1757       H  0.63018926  0.10295802  0.59182397     0.18660
F1758       F  0.64932199  0.06390379  0.59007309    -0.19100
C1759       C  0.67632342  0.04239254  0.26157983    -0.20540
C1760       C  0.67822400  0.06754491  0.27548288    -0.08580
C1761       C  0.68056912  0.09235456  0.26025386     0.30280
C1762       C  0.68012205  0.09149881  0.23205859    -0.20540
C1763       C  0.67731566  0.06602293  0.21810243    -0.08590
C1764       C  0.67585768  0.04154170  0.23325732     0.30290
F1765       F  0.67332219  0.01644773  0.22087084    -0.19110
H1766       H  0.67452961  0.02294754  0.27262533     0.18650
H1767       H  0.68148993  0.11082712  0.22113845     0.18660
F1768       F  0.68275312  0.11739412  0.27244620    -0.19100
C1769       C  0.65563129  0.00697118  0.48541368    -0.20540
C1770       C  0.63641444  0.01676833  0.47384594    -0.08580
C1771       C  0.60697074  0.00563701  0.48458919     0.30280
C1772       C  0.59723619  0.48559073  0.50663497    -0.20540
C1773       C  0.61624409  0.47555145  0.51813097    -0.08590
C1774       C  0.64558181  0.48631359  0.50723166     0.30290
F1775       F  0.66499356  0.47794758  0.51837647    -0.19110
H1776       H  0.67820677  0.01483872  0.47719758     0.18650
H1777       H  0.57478448  0.47809161  0.51497714     0.18660
F1778       F  0.58773990  0.01459244  0.47407028    -0.19100
C1779       C  0.55694952  0.07352656  0.38296620    -0.20540
C1780       C  0.58513652  0.09745082  0.37406029    -0.08580
C1781       C  0.58692619  0.12444777  0.36386683     0.30280
C1782       C  0.56051886  0.12730951  0.36338399    -0.20540
C1783       C  0.53223326  0.10298722  0.37249723    -0.08590
C1784       C  0.53101698  0.07600483  0.38225810     0.30290
F1785       F  0.00479055  0.05162239  0.39171034    -0.19110
H1786       H  0.55468139  0.05220982  0.39039680     0.18650
H1787       H  0.56211729  0.14826473  0.35583783     0.18660
F1788       F  0.61401760  0.14802206  0.35501572    -0.19100
C1789       C  0.80511909  0.06637373  0.41571612    -0.20540
C1790       C  0.81595846  0.05735888  0.39377051    -0.08580
C1791       C  0.79536755  0.04054011  0.37254995     0.30280
C1792       C  0.76559045  0.03567856  0.37220042    -0.20540
C1793       C  0.75579161  0.04734157  0.39290890    -0.08590
C1794       C  0.77532686  0.06138482  0.41541131     0.30290
F1795       F  0.76622696  0.07163972  0.43663688    -0.19110
H1796       H  0.82016037  0.07872409  0.43255785     0.18650
H1797       H  0.75087743  0.02440337  0.35489078     0.18660
F1798       F  0.80429824  0.03003559  0.35139428    -0.19100
C1799       C  0.86056963  0.30775842  0.26577342    -0.20540
C1800       C  0.88857461  0.32083373  0.28017420    -0.08580
C1801       C  0.91627031  0.33449390  0.26575445     0.30280
C1802       C  0.91591355  0.33539661  0.23768699    -0.20540
C1803       C  0.88811277  0.32219035  0.22331013    -0.08590
C1804       C  0.86029167  0.30802761  0.23740689     0.30290
F1805       F  0.83309765  0.29551561  0.22382864    -0.19110
H1806       H  0.83900533  0.29723761  0.27646227     0.18650
H1807       H  0.93754689  0.34645789  0.22705642     0.18660
F1808       F  0.94387397  0.34800006  0.27875780    -0.19100
C1809       C  0.86000243  0.42538625  0.37973646    -0.20540
C1810       C  0.88130280  0.42079927  0.36558164    -0.08580
C1811       C  0.90540264  0.44561409  0.35187880     0.30280
C1812       C  0.90946783  0.47491117  0.35397785    -0.20540
C1813       C  0.88980275  0.47999235  0.36990944    -0.08590
C1814       C  0.86432791  0.45504028  0.38203330     0.30290
F1815       F  0.84476217  0.45961883  0.39715464    -0.19110
H1816       H  0.84163761  0.40662013  0.39077951     0.18650
H1817       H  0.92910689  0.49402311  0.34442632     0.18660
F1818       F  0.92645242  0.44188326  0.33819221    -0.19100
C1819       C  0.95098797  0.24894048  0.37337823    -0.20540
C1820       C  0.93713143  0.25396345  0.39585364    -0.08580
C1821       C  0.93016254  0.23451252  0.41837987     0.30280
C1822       C  0.93483922  0.20944721  0.41748965    -0.20540
C1823       C  0.94672255  0.20328709  0.39429516    -0.08590
C1824       C  0.95576035  0.22394859  0.37254630     0.30290
F1825       F  0.96702699  0.21881092  0.34967415    -0.19110
H1826       H  0.95698537  0.26363713  0.35574764     0.18650
H1827       H  0.92798795  0.19405817  0.43468897     0.18660
F1828       F  0.91736958  0.23862811  0.44072532    -0.19100
C1829       C  0.51902567  0.43588652  0.35274187    -0.20540
C1830       C  0.51446333  0.40993757  0.36697308    -0.08580
C1831       C  0.53975484  0.40744854  0.37549438     0.30280
C1832       C  0.56957208  0.43230213  0.37184063    -0.20540
C1833       C  0.57394226  0.45939227  0.35954466    -0.08590
C1834       C  0.54851146  0.46036456  0.34880874     0.30290
F1835       F  0.55209268  0.98607495  0.33642078    -0.19110
H1836       H  0.49958222  0.43768412  0.34562439     0.18650
H1837       H  0.58887514  0.43135855  0.38056346     0.18660
F1838       F  0.53552366  0.38209551  0.38896694    -0.19100
C1839       C  0.76962774  0.23042669  0.38012925    -0.20540
C1840       C  0.79633410  0.23662296  0.39450158    -0.08580
C1841       C  0.79612525  0.21283981  0.40996768     0.30280
C1842       C  0.77030567  0.18357291  0.41016124    -0.20540
C1843       C  0.74429355  0.17701257  0.39472283    -0.08590
C1844       C  0.74381485  0.20085393  0.38013104     0.30290
F1845       F  0.71864351  0.19546538  0.36549783    -0.19110
H1846       H  0.76898356  0.24822323  0.36826758     0.18650
H1847       H  0.77136510  0.16554742  0.42129489     0.18660
F1848       F  0.82132528  0.21717231  0.42396190    -0.19100
C1849       C  0.84816632  0.40600089  0.73258478    -0.20540
C1850       C  0.82088751  0.38636657  0.71853935    -0.08580
C1851       C  0.79415300  0.36740389  0.73334878     0.30280
C1852       C  0.79505783  0.36828933  0.76170826    -0.20540
C1853       C  0.82254633  0.38808256  0.77560377    -0.08590
C1854       C  0.84909220  0.40704248  0.76056778     0.30290
F1855       F  0.87607224  0.42734964  0.77271421    -0.19110
H1856       H  0.86905696  0.42127034  0.72187645     0.18650
H1857       H  0.77430500  0.35348558  0.77276847     0.18660
F1858       F  0.76734928  0.34792156  0.72056410    -0.19100
C1859       C  0.72774394  0.25643003  0.61165484    -0.20540
C1860       C  0.73441858  0.28549573  0.60241677    -0.08580
C1861       C  0.71130876  0.28867751  0.58921828     0.30280
C1862       C  0.68150514  0.26371901  0.58703248    -0.20540
C1863       C  0.67419464  0.23527867  0.59811384    -0.08590
C1864       C  0.69760158  0.23143721  0.60982401     0.30290
F1865       F  0.69081232  0.20419247  0.62120740    -0.19110
H1866       H  0.74521308  0.25362936  0.62201366     0.18650
H1867       H  0.66361894  0.26716620  0.57841162     0.18660
F1868       F  0.71724214  0.31645184  0.57972131    -0.19100
C1869       C  0.94535277  0.05024682  0.64916429    -0.20420
C1870       C  0.95180919  0.07121127  0.62805733    -0.08580
C1871       C  0.93303292  0.06156578  0.60475593     0.30280
C1872       C  0.90975489  0.03068880  0.60196035    -0.20540
C1873       C  0.90481051  0.00914049  0.62240978    -0.08590
C1874       C  0.92221751  0.01970713  0.64656236     0.30290
F1875       F  0.91831104  0.50032387  0.66729895    -0.19110
H1876       H  0.95951793  0.05718392  0.66730048     0.18650
H1877       H  0.89658242  0.02339798  0.58330090     0.18660
F1878       F  0.93886820  0.08121383  0.58380936    -0.19100
C1879       C  0.69698061  0.40884547  0.60322566    -0.20540
C1880       C  0.70305940  0.43917058  0.60532138    -0.08580
C1881       C  0.73373369  0.46343486  0.60476750     0.30280
C1882       C  0.75777101  0.45706214  0.60221583    -0.20540
C1883       C  0.75125803  0.42650760  0.60058261    -0.08590
C1884       C  0.72066069  0.40254958  0.60113744     0.30290
F1885       F  0.71369828  0.37280369  0.60036412    -0.19110
H1886       H  0.67361131  0.38968744  0.60377955     0.18650
H1887       H  0.78135803  0.47576594  0.60252095     0.18660
F1888       F  0.74036968  0.99299617  0.60639784    -0.19100
C1889       C  0.93189021  0.36189412  0.63052578    -0.20540
C1890       C  0.92338631  0.38212800  0.61926361    -0.08580
C1891       C  0.94517900  0.40825986  0.60525416     0.30280
C1892       C  0.97530942  0.41493067  0.60359214    -0.20540
C1893       C  0.98470072  0.39598380  0.61614843    -0.08590
C1894       C  0.96256566  0.36886881  0.62916769     0.30290
F1895       F  0.97060516  0.34954245  0.64096798    -0.19110
H1896       H  0.91524946  0.34162844  0.64133349     0.18650
H1897       H  0.99159466  0.43583576  0.59331728     0.18660
F1898       F  0.93743810  0.42798507  0.59372416    -0.19100
C1899       C  0.85251882  0.34515421  0.48227132    -0.20540
C1900       C  0.88417769  0.36153113  0.47704230    -0.08580
C1901       C  0.90326761  0.38754629  0.49283018     0.30280
C1902       C  0.89089311  0.39641704  0.51382425    -0.20540
C1903       C  0.85925760  0.37982202  0.51913560    -0.08590
C1904       C  0.84016583  0.35416530  0.50305951     0.30290
F1905       F  0.80956988  0.33746810  0.50786881    -0.19110
H1906       H  0.83720831  0.32554767  0.46993015     0.18650
H1907       H  0.90621122  0.41542949  0.52673166     0.18660
F1908       F  0.93400203  0.40361496  0.48862840    -0.19100
Zn1909     Zn  0.83460822  0.92166182  0.58593829     1.49720
Zn1910     Zn  0.83107573  0.85610365  0.60157299     1.49360
Zn1911     Zn  0.86131539  0.91237815  0.63991591     1.49110
Zn1912     Zn  0.79182675  0.87697888  0.63381052     1.49480
O1913       O  0.82926935  0.89181372  0.61441015    -1.83360
O1914       O  0.84636525  0.90814552  0.55034319    -0.73990
O1915       O  0.86845698  0.85477393  0.61652797    -0.73810
O1916       O  0.88056265  0.95746474  0.63726411    -0.73320
O1917       O  0.84125438  0.86310593  0.56266169    -0.74000
O1918       O  0.86875943  0.96538448  0.59598803    -0.73600
O1919       O  0.89334143  0.90273994  0.63189328    -0.74190
O1920       O  0.79678500  0.87642027  0.67469197    -0.73580
O1921       O  0.78939522  0.81615348  0.60341701    -0.74330
O1922       O  0.84750989  0.90065804  0.67739846    -0.73720
O1923       O  0.76183560  0.83511273  0.62051044    -0.74190
O1924       O  0.77376807  0.90255800  0.62391053    -0.74100
O1925       O  0.79554389  0.92529740  0.58486657    -0.73890
C1926       C  0.84789902  0.88404951  0.54518642     0.77900
C1927       C  0.89324480  0.87898813  0.62354314     0.78390
C1928       C  0.88332940  0.97568465  0.61827263     0.77350
C1929       C  0.82145600  0.88736819  0.68866291     0.77730
C1930       C  0.76358768  0.81343239  0.60938216     0.78860
C1931       C  0.77535550  0.91838239  0.60321441     0.77910
Zn1932     Zn  0.86426404  0.82730688  0.36364907     1.49720
Zn1933     Zn  0.92361795  0.87310014  0.39790696     1.49360
Zn1934     Zn  0.89014970  0.80486866  0.41325935     1.49110
Zn1935     Zn  0.92718226  0.82640048  0.35970728     1.49480
O1936       O  0.90085255  0.83259350  0.38321624    -1.83360
O1937       O  0.86105543  0.86623613  0.36731110    -0.73990
O1938       O  0.91311286  0.87478945  0.43677834    -0.73810
O1939       O  0.84796489  0.77121519  0.40625198    -0.73320
O1940       O  0.90976817  0.89843161  0.37913253    -0.74000
O1941       O  0.82640049  0.78747651  0.37603467    -0.73600
O1942       O  0.88626440  0.82527702  0.44748522    -0.74190
O1943       O  0.93049726  0.79055671  0.37132970    -0.73580
O1944       O  0.96868546  0.89321344  0.39072866    -0.74330
O1945       O  0.91614092  0.78372795  0.41429192    -0.73720
O1946       O  0.96990537  0.86218215  0.35971080    -0.74190
O1947       O  0.91216317  0.82142303  0.32178507    -0.74100
O1948       O  0.86891788  0.82287511  0.32330989    -0.73890
C1949       C  0.88379372  0.89343470  0.37064806     0.77900
C1950       C  0.89586195  0.85343003  0.45296863     0.78390
C1951       C  0.82487499  0.76687628  0.39222593     0.77350
C1952       C  0.92769045  0.77752260  0.39405628     0.77730
C1953       C  0.98298300  0.88676976  0.37338884     0.78860
C1954       C  0.88956320  0.82129769  0.31001213     0.77910
Zn1955     Zn  0.66934908  0.59725433  0.35598633     1.49720
Zn1956     Zn  0.69315987  0.57891009  0.40958968     1.49360
Zn1957     Zn  0.62685387  0.54610287  0.39412708     1.49110
Zn1958     Zn  0.66902036  0.53292174  0.35874510     1.49480
O1959       O  0.66591902  0.56431805  0.37887141    -1.83360
O1960       O  0.70487110  0.63665742  0.36922559    -0.73990
O1961       O  0.67335903  0.55608953  0.44476234    -0.73810
O1962       O  0.61011875  0.57369434  0.39378942    -0.73320
O1963       O  0.71548919  0.62539406  0.41024619    -0.74000
O1964       O  0.63176273  0.60218012  0.35748734    -0.73600
O1965       O  0.62497952  0.52950595  0.43099707    -0.74190
O1966       O  0.62887096  0.99149235  0.36163804    -0.73580
O1967       O  0.72476121  0.56799024  0.40365512    -0.74330
O1968       O  0.59912599  0.01053703  0.37241280    -0.73720
O1969       O  0.70689177  0.53168595  0.37208399    -0.74190
O1970       O  0.67428354  0.54443013  0.31880824    -0.74100
O1971       O  0.67516297  0.58893185  0.31737152    -0.73890
C1972       C  0.71979969  0.64473451  0.39149154     0.77900
C1973       C  0.64548725  0.53550046  0.44883947     0.78390
C1974       C  0.61104650  0.59184461  0.37541658     0.77350
C1975       C  0.60237985  0.98860004  0.36424392     0.77730
C1976       C  0.72734878  0.54856751  0.38952002     0.78860
C1977       C  0.67608307  0.56706611  0.30549018     0.77910
Zn1978     Zn  0.61068830  0.91601844  0.58579122     1.49720
Zn1979     Zn  0.58065302  0.95392091  0.59873643     1.49360
Zn1980     Zn  0.57219620  0.90379677  0.63856126     1.49110
Zn1981     Zn  0.63799398  0.96619092  0.63463385     1.49480
O1982       O  0.60121134  0.93509836  0.61491057    -1.83360
O1983       O  0.61398115  0.93764613  0.54943607    -0.73990
O1984       O  0.53535521  0.92813823  0.60085903    -0.73810
O1985       O  0.57093942  0.86488770  0.63073205    -0.73320
O1986       O  0.59342395  0.96576671  0.56085143    -0.74000
O1987       O  0.58469097  0.86858080  0.58770262    -0.73600
O1988       O  0.52872604  0.89514400  0.63345796    -0.74190
O1989       O  0.63207029  0.95623631  0.67520867    -0.73580
O1990       O  0.59316442  0.49273566  0.61719617    -0.74330
O1991       O  0.58531580  0.91509256  0.67690266    -0.73720
O1992       O  0.64125296  0.50877481  0.63082750    -0.74190
O1993       O  0.67600638  0.96370117  0.62236412    -0.74100
O1994       O  0.65270812  0.92482020  0.59331351    -0.73890
C1995       C  0.60708443  0.95823713  0.54388221     0.77900
C1996       C  0.51785897  0.90648177  0.61666384     0.78390
C1997       C  0.57427535  0.85294734  0.60947720     0.77350
C1998       C  0.60949444  0.93571354  0.68870561     0.77730
C1999       C  0.61892545  0.51352541  0.62631942     0.78860
C2000       C  0.67626045  0.94355850  0.60690851     0.77910
Zn2001     Zn  0.52493695  0.66248217  0.60580107     1.49720
Zn2002     Zn  0.54788367  0.62958996  0.64550091     1.49360
Zn2003     Zn  0.58258042  0.65460280  0.58999806     1.49110
Zn2004     Zn  0.58807943  0.69883444  0.63847834     1.49480
O2005       O  0.56098992  0.66165077  0.61928789    -1.83360
O2006       O  0.98486297  0.62498389  0.61856212    -0.73990
O2007       O  0.57313322  0.60931372  0.64292338    -0.73810
O2008       O  0.55576994  0.64229574  0.55480786    -0.73320
O2009       O  0.00443972  0.59873478  0.63823563    -0.74000
O2010       O  0.52102290  0.65465709  0.56667463    -0.73600
O2011       O  0.59246363  0.62157547  0.60165623    -0.74190
O2012       O  0.63093493  0.71563034  0.62549427    -0.73580
O2013       O  0.55070069  0.64475488  0.68330839    -0.74330
O2014       O  0.62519280  0.69286824  0.58556461    -0.73720
O2015       O  0.58609736  0.69393651  0.67928848    -0.74190
O2016       O  0.57601390  0.72994871  0.62952135    -0.74100
O2017       O  0.52977567  0.70502790  0.60988595    -0.73890
C2018       C  0.98170212  0.60011114  0.62854329     0.77900
C2019       C  0.58873914  0.60720032  0.62393393     0.78390
C2020       C  0.53230875  0.64494257  0.54925958     0.77350
C2021       C  0.64178136  0.71300258  0.60325398     0.77730
C2022       C  0.56829535  0.67091745  0.69379332     0.78860
C2023       C  0.55288007  0.72973838  0.61871589     0.77910
Zn2024     Zn  0.96310812  0.63074865  0.36388620     1.49720
Zn2025     Zn  0.89805924  0.56862047  0.35801918     1.49360
Zn2026     Zn  0.94391380  0.57104169  0.39837047     1.49110
Zn2027     Zn  0.91405726  0.60777082  0.41202136     1.49480
O2028       O  0.92958299  0.59562596  0.38251985    -1.83360
O2029       O  0.95448389  0.62601050  0.32314915    -0.73990
O2030       O  0.89178565  0.52611015  0.35756087    -0.73810
O2031       O  0.47911749  0.57924246  0.37690039    -0.73320
O2032       O  0.90834253  0.58385353  0.32045346    -0.74000
O2033       O  0.50332420  0.62961158  0.37030900    -0.73600
O2034       O  0.91492233  0.52543419  0.39570008    -0.74190
O2035       O  0.93665298  0.60960043  0.44718770    -0.73580
O2036       O  0.85876185  0.56405668  0.36946999    -0.74330
O2037       O  0.96069323  0.58489112  0.43581032    -0.73720
O2038       O  0.86727744  0.58186106  0.41166775    -0.74190
O2039       O  0.92523168  0.65106837  0.40561313    -0.74100
O2040       O  0.96360634  0.67008573  0.37614325    -0.73890
C2041       C  0.93174545  0.60587144  0.30931403     0.77900
C2042       C  0.89834271  0.51183611  0.37512618     0.78390
C2043       C  0.50365488  0.60447718  0.37279959     0.77350
C2044       C  0.95610180  0.60111624  0.45252152     0.77730
C2045       C  0.84904223  0.56800603  0.39178083     0.78860
C2046       C  0.94557387  0.67342799  0.39196200     0.77910
Zn2047     Zn  0.86599909  0.91440751  0.85417537     1.49720
Zn2048     Zn  0.79548117  0.87995029  0.85998186     1.49360
Zn2049     Zn  0.83494054  0.85913035  0.89318830     1.49110
Zn2050     Zn  0.83714881  0.92365732  0.90776253     1.49480
O2051       O  0.83350105  0.89460347  0.87944366    -1.83360
O2052       O  0.85020158  0.90422099  0.81677374    -0.73990
O2053       O  0.76477505  0.83908380  0.87490809    -0.73810
O2054       O  0.86992569  0.85491795  0.87788627    -0.73320
O2055       O  0.79954491  0.87742056  0.81940690    -0.74000
O2056       O  0.89684584  0.90114861  0.85914617    -0.73600
O2057       O  0.79245909  0.82028455  0.89317698    -0.74190
O2058       O  0.84866748  0.91040643  0.94440967    -0.73580
O2059       O  0.77920598  0.90778876  0.86686821    -0.74330
O2060       O  0.84817979  0.86804793  0.93116616    -0.73720
O2061       O  0.79812210  0.92785302  0.90730312    -0.74190
O2062       O  0.87101917  0.96719520  0.89728855    -0.74100
O2063       O  0.88665271  0.95964471  0.85794695    -0.73890
C2064       C  0.82396528  0.88970800  0.80546769     0.77900
C2065       C  0.76661193  0.81772634  0.88701415     0.78390
C2066       C  0.89472622  0.87632993  0.86771200     0.77350
C2067       C  0.85323308  0.88791011  0.94911551     0.77730
C2068       C  0.77995460  0.92338003  0.88724974     0.78860
C2069       C  0.88728219  0.97766387  0.87604541     0.77910
Zn2070     Zn  0.87945182  0.79666829  0.13878131     1.49720
Zn2071     Zn  0.91692063  0.86551000  0.14554882     1.49360
Zn2072     Zn  0.92267090  0.83746696  0.09077881     1.49110
Zn2073     Zn  0.85930777  0.83667131  0.10736955     1.49480
O2074       O  0.89479138  0.83416579  0.11977450    -1.83360
O2075       O  0.87583894  0.80068588  0.17916187    -0.73990
O2076       O  0.96202550  0.88384049  0.14179794    -0.73810
O2077       O  0.92634984  0.79830749  0.09106136    -0.73320
O2078       O  0.90602212  0.85113557  0.18347588    -0.74000
O2079       O  0.90749052  0.78102221  0.13204207    -0.73600
O2080       O  0.96678713  0.87122386  0.10010739    -0.74190
O2081       O  0.86662223  0.84872112  0.06908366    -0.73580
O2082       O  0.90753099  0.89799818  0.13733120    -0.74330
O2083       O  0.90840619  0.84896866  0.05479518    -0.73720
O2084       O  0.85936362  0.87462557  0.12204520    -0.74190
O2085       O  0.81933705  0.79424567  0.10788197    -0.74100
O2086       O  0.83920815  0.76627567  0.12307705    -0.73890
C2087       C  0.88939970  0.82468601  0.19375635     0.77900
C2088       C  0.97876642  0.88582656  0.12203758     0.78390
C2089       C  0.92257267  0.78111057  0.11159145     0.77350
C2090       C  0.88586213  0.85362023  0.05069377     0.77730
C2091       C  0.88431692  0.89905272  0.12852991     0.78860
C2092       C  0.81729762  0.76824035  0.11227409     0.77910
Zn2093     Zn  0.66856142  0.53168899  0.13490542     1.49720
Zn2094     Zn  0.66863606  0.59551649  0.13701940     1.49360
Zn2095     Zn  0.69347260  0.57880135  0.08472937     1.49110
Zn2096     Zn  0.62422730  0.54438019  0.09805917     1.49480
O2097       O  0.66436896  0.56269651  0.11413011    -1.83360
O2098       O  0.67239374  0.54228100  0.17501413    -0.73990
O2099       O  0.70366365  0.63547304  0.12441337    -0.73810
O2100       O  0.72649827  0.56936611  0.09261433    -0.73320
O2101       O  0.67450196  0.58732843  0.17582363    -0.74000
O2102       O  0.70873254  0.53312000  0.12434955    -0.73600
O2103       O  0.71489591  0.62592003  0.08350977    -0.74190
O2104       O  0.62456807  0.53154697  0.06018128    -0.73580
O2105       O  0.63211781  0.60150747  0.13449208    -0.74330
O2106       O  0.67389604  0.55533637  0.04960913    -0.73720
O2107       O  0.60526994  0.57103108  0.10051242    -0.74190
O2108       O  0.59704813  0.00490847  0.11617043    -0.74100
O2109       O  0.62915947  0.98930839  0.13031258    -0.73890
C2110       C  0.67479466  0.56514027  0.18805789     0.77900
C2111       C  0.71834659  0.64469925  0.10236399     0.78390
C2112       C  0.72973176  0.55077996  0.10786416     0.77350
C2113       C  0.64579488  0.53632140  0.04390570     0.77730
C2114       C  0.60993903  0.59170772  0.11761802     0.78860
C2115       C  0.60205003  0.98408330  0.12492953     0.77910
Zn2116     Zn  0.57394334  0.89894449  0.85607333     1.49720
Zn2117     Zn  0.63543685  0.96461138  0.85981460     1.49360
Zn2118     Zn  0.57667765  0.94408845  0.89721543     1.49110
Zn2119     Zn  0.61768181  0.91749326  0.90919578     1.49480
O2120       O  0.60182824  0.93125868  0.88003298    -1.83360
O2121       O  0.58789231  0.90870639  0.81769080    -0.73990
O2122       O  0.63313110  0.50399620  0.86423588    -0.73810
O2123       O  0.53108450  0.91446842  0.89470190    -0.73320
O2124       O  0.62911849  0.95536039  0.81952006    -0.74000
O2125       O  0.53076047  0.89182572  0.85647565    -0.73600
O2126       O  0.58478978  0.48148908  0.87855079    -0.74190
O2127       O  0.62056133  0.93961037  0.94475229    -0.73580
O2128       O  0.67629856  0.96662260  0.86999187    -0.74330
O2129       O  0.59000362  0.95801847  0.93491040    -0.73720
O2130       O  0.66099711  0.92977860  0.90120312    -0.74190
O2131       O  0.59345935  0.87074893  0.90943007    -0.74100
O2132       O  0.57084219  0.85993847  0.86868080    -0.73890
C2133       C  0.60923723  0.93228212  0.80599185     0.77900
C2134       C  0.60847528  0.50451999  0.86884759     0.78390
C2135       C  0.51672830  0.89762099  0.87453464     0.77350
C2136       C  0.60870126  0.95588175  0.95089495     0.77730
C2137       C  0.68159819  0.94961790  0.88587859     0.78860
C2138       C  0.57794208  0.85158954  0.89065531     0.77910
Zn2139     Zn  0.59697276  0.66745019  0.86060909     1.49720
Zn2140     Zn  0.53258287  0.66650461  0.86308979     1.49360
Zn2141     Zn  0.54382057  0.62073741  0.89817935     1.49110
Zn2142     Zn  0.57967752  0.68884233  0.91350354     1.49480
O2143       O  0.56333837  0.66124824  0.88328394    -1.83360
O2144       O  0.58937311  0.67520116  0.82213314    -0.73990
O2145       O  0.98940346  0.62833417  0.86722757    -0.73810
O2146       O  0.56801775  0.60016181  0.89152136    -0.73320
O2147       O  0.54283577  0.66992836  0.82315401    -0.74000
O2148       O  0.60186111  0.63041605  0.86075606    -0.73600
O2149       O  0.00422759  0.59529276  0.87985588    -0.74190
O2150       O  0.55560589  0.66875702  0.94751279    -0.73580
O2151       O  0.53548571  0.70701535  0.87433318    -0.74330
O2152       O  0.53083150  0.61942446  0.93671014    -0.73720
O2153       O  0.57157381  0.72239624  0.90624883    -0.74190
O2154       O  0.62642111  0.71028756  0.91608015    -0.74100
O2155       O  0.63672160  0.70186445  0.87444215    -0.73890
C2156       C  0.56624940  0.67390077  0.81013087     0.77900
C2157       C  0.98369039  0.60095438  0.87165557     0.78390
C2158       C  0.58902877  0.60582596  0.87457834     0.77350
C2159       C  0.53586586  0.64089003  0.95298566     0.77730
C2160       C  0.55384432  0.72720332  0.89123884     0.78860
C2161       C  0.64542880  0.71540528  0.89713989     0.77910
Zn2162     Zn  0.94931132  0.58367321  0.14281336     1.49720
Zn2163     Zn  0.91324638  0.61788244  0.13939968     1.49360
Zn2164     Zn  0.97289728  0.64156277  0.10497982     1.49110
Zn2165     Zn  0.91122652  0.57776064  0.08898815     1.49480
O2166       O  0.93656311  0.60509181  0.11855159    -1.83360
O2167       O  0.94481583  0.59092333  0.18176060    -0.73990
O2168       O  0.92561430  0.66102405  0.12983077    -0.73810
O2169       O  0.51252918  0.64384388  0.11777495    -0.73320
O2170       O  0.92039366  0.61717838  0.17954999    -0.74000
O2171       O  0.99286640  0.59705059  0.13566413    -0.73600
O2172       O  0.97047226  0.68047494  0.10894986    -0.74190
O2173       O  0.93530066  0.59193247  0.05293215    -0.73580
O2174       O  0.86851725  0.59095806  0.13038449    -0.74330
O2175       O  0.97534820  0.63640091  0.06594042    -0.73720
O2176       O  0.86902255  0.57458448  0.08872940    -0.74190
O2177       O  0.90147551  0.53400678  0.09661987    -0.74100
O2178       O  0.92568379  0.53886893  0.13578278    -0.73890
C2179       C  0.93306240  0.60501432  0.19314421     0.77900
C2180       C  0.94869473  0.68332039  0.11851903     0.78390
C2181       C  0.51537311  0.62148621  0.12635790     0.77350
C2182       C  0.96090207  0.61630561  0.04790455     0.77730
C2183       C  0.85468447  0.57749433  0.10859819     0.78860
C2184       C  0.90861224  0.52250536  0.11644612     0.77910
C2185       C  0.97610064  0.59735302  0.00753363    -0.20540
C2186       C  0.97637882  0.62160103  0.02150082    -0.08580
C2187       C  0.99626396  0.65190769  0.01271464     0.30280
C2188       C  0.51602288  0.65781058  0.99111962    -0.20540
C2189       C  0.51649061  0.63375833  0.97746029    -0.08590
C2190       C  0.49590256  0.60326982  0.98570819     0.30290
F2191       F  0.49520373  0.57915280  0.97307015    -0.19110
H2192       H  0.96151623  0.57389426  0.01423866     0.18650
H2193       H  0.53080081  0.68142727  0.98491246     0.18660
F2194       F  0.99688949  0.67604900  0.02528420    -0.19100
C2195       C  0.54502090  0.79654235  0.87727862    -0.20540
C2196       C  0.56876303  0.81890955  0.89359502    -0.08580
C2197       C  0.58529711  0.81006870  0.91072820     0.30280
C2198       C  0.57910014  0.77987753  0.91058544    -0.20540
C2199       C  0.55644627  0.75773184  0.89328875    -0.08590
C2200       C  0.53880497  0.76618920  0.87711292     0.30290
F2201       F  0.01628909  0.74556578  0.86054762    -0.19110
H2202       H  0.53174053  0.80274565  0.86404507     0.18650
H2203       H  0.59313140  0.77425272  0.92340163     0.18660
F2204       F  0.60882670  0.83091849  0.92636532    -0.19100
C2205       C  0.63112699  0.56174861  0.86900222    -0.20540
C2206       C  0.60610601  0.53211348  0.86429569    -0.08580
C2207       C  0.57672829  0.52822904  0.85968392     0.30280
C2208       C  0.57192689  0.55274663  0.86262244    -0.20540
C2209       C  0.59630565  0.58178377  0.86929454    -0.08590
C2210       C  0.62628021  0.58671127  0.87124858     0.30290
F2211       F  0.65029212  0.61500884  0.87711790    -0.19110
H2212       H  0.65388062  0.56522038  0.87258955     0.18650
H2213       H  0.54885924  0.54890803  0.86021703     0.18660
F2214       F  0.55214121  0.00023503  0.85382449    -0.19100
C2215       C  0.65698903  0.50795369  0.00864365    -0.20540
C2216       C  0.63721492  0.51732794  0.01906835    -0.08580
C2217       C  0.60760974  0.50504258  0.00770289     0.30280
C2218       C  0.59824405  0.98415298  0.98635524    -0.20540
C2219       C  0.61787236  0.97462583  0.97593285    -0.08590
C2220       C  0.64743246  0.98666796  0.98741510     0.30290
F2221       F  0.66743364  0.97870287  0.97759151    -0.19110
H2222       H  0.67966410  0.51655937  0.01738412     0.18650
H2223       H  0.57552031  0.97560812  0.97773900     0.18660
F2224       F  0.58769970  0.51336539  0.01709505    -0.19100
C2225       C  0.58708835  0.61882360  0.14174439    -0.20540
C2226       C  0.58882387  0.60404246  0.11835818    -0.08580
C2227       C  0.56899944  0.59974968  0.09643321     0.30280
C2228       C  0.54695238  0.60852227  0.09854891    -0.20540
C2229       C  0.54403187  0.62141651  0.12248155    -0.08590
C2230       C  0.56454454  0.62707971  0.14395642     0.30290
F2231       F  0.56166859  0.63896952  0.16748454    -0.19110
H2232       H  0.60208949  0.62249713  0.15890210     0.18650
H2233       H  0.53079439  0.60346390  0.08201598     0.18660
F2234       F  0.57008834  0.58608963  0.07329009    -0.19100
C2235       C  0.80290930  0.55269455  0.12967359    -0.20540
C2236       C  0.82127463  0.56561322  0.10672286    -0.08580
C2237       C  0.80794207  0.56957768  0.08314867     0.30280
C2238       C  0.77741672  0.56278476  0.08324537    -0.20540
C2239       C  0.75945286  0.55148368  0.10667659    -0.08590
C2240       C  0.77215818  0.54531105  0.12962254     0.30290
F2241       F  0.75569446  0.53431851  0.15260599    -0.19110
H2242       H  0.81272117  0.54920849  0.14801124     0.18650
H2243       H  0.76818569  0.56763777  0.06522442     0.18660
F2244       F  0.82503264  0.58226677  0.06072116    -0.19100
C2245       C  0.52452570  0.92479385  0.14820759    -0.20540
C2246       C  0.51257439  0.90659551  0.12481377    -0.08580
C2247       C  0.53297681  0.91044935  0.10393936     0.30280
C2248       C  0.56385154  0.93384003  0.10557432    -0.20540
C2249       C  0.57487506  0.95346951  0.12801973    -0.08590
C2250       C  0.55523828  0.94814336  0.14970166     0.30290
F2251       F  0.56506996  0.96736699  0.17126744    -0.19110
H2252       H  0.50967892  0.92232101  0.16481857     0.18650
H2253       H  0.57855608  0.93818424  0.08835822     0.18660
F2254       F  0.52285197  0.89300049  0.08127797    -0.19100
C2255       C  0.76895660  0.68727125  0.08685097    -0.20540
C2256       C  0.74100812  0.67788259  0.09972369    -0.08580
C2257       C  0.73686175  0.70004449  0.11327438     0.30280
C2258       C  0.76102828  0.73051919  0.11537369    -0.20540
C2259       C  0.78972816  0.73910656  0.10446027    -0.08590
C2260       C  0.79324311  0.71747766  0.08948010     0.30290
F2261       F  0.82080391  0.72521586  0.07860709    -0.19110
H2262       H  0.77277995  0.67071137  0.07642217     0.18650
H2263       H  0.75796776  0.74679117  0.12711288     0.18660
F2264       F  0.70988526  0.69192929  0.12552005    -0.19100
C2265       C  0.86420215  0.93591013  0.12491320    -0.20540
C2266       C  0.88852793  0.92990732  0.12379913    -0.08580
C2267       C  0.91819083  0.95412887  0.11744071     0.30280
C2268       C  0.92371858  0.98377327  0.11401255    -0.20540
C2269       C  0.89996928  0.99011278  0.11632089    -0.08590
C2270       C  0.86993156  0.96606072  0.12131629     0.30290
F2271       F  0.84665344  0.97194311  0.12389995    -0.19110
H2272       H  0.84116163  0.91758500  0.12934838     0.18650
H2273       H  0.94692452  0.00210815  0.10999089     0.18660
F2274       F  0.94210717  0.94925512  0.11432825    -0.19100
C2275       C  0.93605450  0.74747777  0.13796844    -0.20540
C2276       C  0.93507800  0.76003214  0.11271818    -0.08580
C2277       C  0.94375254  0.75025821  0.08958730     0.30280
C2278       C  0.95087072  0.72670218  0.09169443    -0.20540
C2279       C  0.94923582  0.71270369  0.11677278    -0.08590
C2280       C  0.94273262  0.72397134  0.13996745     0.30290
F2281       F  0.94141796  0.71117477  0.16451607    -0.19110
H2282       H  0.93030112  0.75493124  0.15632336     0.18650
H2283       H  0.95560017  0.71801288  0.07354636     0.18660
F2284       F  0.94343553  0.76190999  0.06487558    -0.19100
C2285       C  0.68544732  0.76784987  0.91091000    -0.20540
C2286       C  0.67802544  0.73923278  0.90028202    -0.08580
C2287       C  0.70128432  0.73567716  0.88840938     0.30280
C2288       C  0.73106247  0.76090258  0.88588636    -0.20540
C2289       C  0.73765037  0.79002815  0.89444559    -0.08590
C2290       C  0.71487943  0.79317382  0.90767509     0.30290
F2291       F  0.72078264  0.82110110  0.91641630    -0.19110
H2292       H  0.66784415  0.77116406  0.91985252     0.18650
H2293       H  0.74834569  0.75811234  0.87565763     0.18660
F2294       F  0.69482001  0.70814711  0.87815753    -0.19100
C2295       C  0.91019890  0.53233073  0.89187824    -0.20540
C2296       C  0.90783417  0.51130588  0.87213059    -0.08580
C2297       C  0.92662300  0.52273289  0.84908369     0.30280
C2298       C  0.94894389  0.55374255  0.84726421    -0.20540
C2299       C  0.95298896  0.57408138  0.86806701    -0.08590
C2300       C  0.93268926  0.56348870  0.88992536     0.30290
F2301       F  0.93667131  0.58261172  0.91068677    -0.19110
H2302       H  0.89586446  0.52442179  0.90961355     0.18650
H2303       H  0.96494771  0.56137350  0.83064805     0.18660
F2304       F  0.92511025  0.00376878  0.82904642    -0.19100
C2305       C  0.72733069  0.95296516  0.90954996    -0.20540
C2306       C  0.71123854  0.95040849  0.88537611    -0.08580
C2307       C  0.71996762  0.94196978  0.86168962     0.30280
C2308       C  0.74320569  0.93461581  0.86247416    -0.20540
C2309       C  0.75845907  0.93558075  0.88686964    -0.08590
C2310       C  0.75112908  0.94615028  0.91027504     0.30290
F2311       F  0.76562675  0.94825100  0.93410998    -0.19110
H2312       H  0.72057451  0.95903408  0.92812748     0.18650
H2313       H  0.74838334  0.92692010  0.84395776     0.18660
F2314       F  0.70406270  0.93799414  0.83828357    -0.19100
C2315       C  0.96400190  0.87427982  0.89357961    -0.20540
C2316       C  0.98358843  0.88614349  0.87132637    -0.08580
C2317       C  0.97193026  0.89004867  0.84661601     0.30280
C2318       C  0.94188556  0.88454182  0.84491606    -0.20540
C2319       C  0.92271424  0.87406570  0.86751224    -0.08590
C2320       C  0.93356981  0.86772399  0.89158459     0.30290
F2321       F  0.91571857  0.85794009  0.91386395    -0.19110
H2322       H  0.97260773  0.87109562  0.91276489     0.18650
H2323       H  0.93404332  0.88992180  0.82630639     0.18660
F2324       F  0.99039603  0.90180346  0.82481323    -0.19100
C2325       C  0.88348423  0.86984107  0.97575416    -0.20540
C2326       C  0.86516971  0.88372557  0.97544843    -0.08580
C2327       C  0.85633788  0.89008897  0.00012678     0.30280
C2328       C  0.86411790  0.88102275  0.02439430    -0.20540
C2329       C  0.88116532  0.86573297  0.02463568    -0.08590
C2330       C  0.89162939  0.86114733  0.00001657     0.30290
F2331       F  0.90826018  0.84682825  0.99918349    -0.19110
H2332       H  0.89081867  0.86490778  0.95703874     0.18650
H2333       H  0.85612697  0.88538060  0.04307301     0.18660
F2334       F  0.83862352  0.90324990  0.00079337    -0.19100
C2335       C  0.92169576  0.57864769  0.23723603    -0.20540
C2336       C  0.93323245  0.60613411  0.22276089    -0.08580
C2337       C  0.94480828  0.63402113  0.23677534     0.30280
C2338       C  0.94497511  0.63421111  0.26510969    -0.20540
C2339       C  0.93266989  0.60650068  0.27956691    -0.08590
C2340       C  0.92097893  0.57868349  0.26533638     0.30290
F2341       F  0.90945541  0.55149000  0.27863900    -0.19110
H2342       H  0.91277087  0.55699729  0.22668580     0.18650
H2343       H  0.95416218  0.65583617  0.27572494     0.18660
F2344       F  0.95656246  0.66097803  0.22309230    -0.19100
C2345       C  0.53982073  0.65819537  0.73707858    -0.20540
C2346       C  0.56778925  0.67423887  0.72334838    -0.08580
C2347       C  0.59501406  0.69197449  0.73823829     0.30280
C2348       C  0.59428469  0.69240724  0.76648288    -0.20540
C2349       C  0.56635065  0.67586185  0.78028640    -0.08590
C2350       C  0.53896447  0.65927405  0.76524233     0.30290
F2351       F  0.51154148  0.64274484  0.77775711    -0.19110
H2352       H  0.51856324  0.64450368  0.72594133     0.18650
H2353       H  0.61566834  0.70534611  0.77762428     0.18660
F2354       F  0.62246582  0.70752237  0.72560961    -0.19100
C2355       C  0.99342011  0.59909256  0.48562451    -0.20540
C2356       C  0.97534745  0.61192051  0.47756650    -0.08580
C2357       C  0.97826410  0.63707095  0.49221343     0.30280
C2358       C  0.49817438  0.64851449  0.51446310    -0.20540
C2359       C  0.51577407  0.63536913  0.52287980    -0.08590
C2360       C  0.51335788  0.61057862  0.50807234     0.30290
F2361       F  0.52909779  0.59654102  0.51596363    -0.19110
H2362       H  0.99197334  0.57992519  0.47462648     0.18650
H2363       H  0.49947366  0.66761874  0.52548553     0.18660
F2364       F  0.96234279  0.65111478  0.48486698    -0.19100
C2365       C  0.58360845  0.91532846  0.73279517    -0.20540
C2366       C  0.61053307  0.93538269  0.71875633    -0.08580
C2367       C  0.63742143  0.95449269  0.73379084     0.30280
C2368       C  0.63705927  0.95336550  0.76215252    -0.20540
C2369       C  0.61004817  0.93308003  0.77601986    -0.08590
C2370       C  0.58325348  0.91415233  0.76091750     0.30290
F2371       F  0.55625459  0.89505971  0.77325109    -0.19110
H2372       H  0.56239296  0.90054188  0.72199925     0.18650
H2373       H  0.65798565  0.96826925  0.77327610     0.18660
F2374       F  0.66407168  0.97406817  0.72122751    -0.19100
C2375       C  0.56503400  0.77934968  0.63856142    -0.20540
C2376       C  0.55399417  0.75942936  0.61643465    -0.08580
C2377       C  0.54869901  0.77001695  0.59169137     0.30280
C2378       C  0.55540169  0.80057313  0.58912210    -0.20540
C2379       C  0.56679140  0.82057648  0.61135608    -0.08590
C2380       C  0.57113027  0.80941223  0.63623522     0.30290
F2381       F  0.58268698  0.82798333  0.65816543    -0.19110
H2382       H  0.56968371  0.77176255  0.65766184     0.18650
H2383       H  0.55179599  0.80860620  0.56983504     0.18660
F2384       F  0.53874512  0.75141973  0.56972606    -0.19100
C2385       C  0.60303061  0.54489613  0.65118154    -0.20540
C2386       C  0.62139468  0.54336305  0.63098838    -0.08580
C2387       C  0.63220890  0.56540933  0.61028092     0.30280
C2388       C  0.62273840  0.58716057  0.60873812    -0.20540
C2389       C  0.60224455  0.58714758  0.62778715    -0.08590
C2390       C  0.59358771  0.56655501  0.64978406     0.30290
F2391       F  0.57401050  0.56553328  0.66886508    -0.19110
H2392       H  0.59373641  0.52748550  0.66683787     0.18650
H2393       H  0.63018985  0.60295961  0.59182539     0.18660
F2394       F  0.64932244  0.56390529  0.59007348    -0.19100
C2395       C  0.67632408  0.54239044  0.26157381    -0.20540
C2396       C  0.67822484  0.56754275  0.27547715    -0.08580
C2397       C  0.68056832  0.59235179  0.26024815     0.30280
C2398       C  0.68012040  0.59149587  0.23205282    -0.20540
C2399       C  0.67731462  0.56602039  0.21809638    -0.08590
C2400       C  0.67585742  0.54153943  0.23325119     0.30290
F2401       F  0.67332204  0.51644562  0.22086450    -0.19110
H2402       H  0.67453116  0.52294577  0.27261921     0.18650
H2403       H  0.68148726  0.61082382  0.22113286     0.18660
F2404       F  0.68275128  0.61739088  0.27244055    -0.19100
C2405       C  0.65563333  0.50697373  0.48541075    -0.20540
C2406       C  0.63641578  0.51677010  0.47384297    -0.08580
C2407       C  0.60697213  0.50563810  0.48458660     0.30280
C2408       C  0.59723403  0.98558942  0.50663734    -0.20540
C2409       C  0.61624120  0.97554929  0.51813331    -0.08590
C2410       C  0.64557896  0.98631076  0.50723432     0.30290
F2411       F  0.66498994  0.97794381  0.51837922    -0.19110
H2412       H  0.67820886  0.51484177  0.47719454     0.18650
H2413       H  0.57478236  0.97809081  0.51497934     0.18660
F2414       F  0.58774054  0.51459270  0.47406793    -0.19100
C2415       C  0.55694843  0.57350869  0.38291795    -0.20540
C2416       C  0.58513996  0.59744787  0.37403914    -0.08580
C2417       C  0.58693184  0.62445332  0.36386664     0.30280
C2418       C  0.56052246  0.62731183  0.36338658    -0.20540
C2419       C  0.53223299  0.60297801  0.37248105    -0.08590
C2420       C  0.53101394  0.57598272  0.38221130     0.30290
F2421       F  0.00478414  0.55158265  0.39163718    -0.19110
H2422       H  0.55467957  0.55218451  0.39032838     0.18650
H2423       H  0.56212399  0.64827624  0.35586251     0.18660
F2424       F  0.61402777  0.64803978  0.35503732    -0.19100
C2425       C  0.80511794  0.56637342  0.41571511    -0.20540
C2426       C  0.81595840  0.55735922  0.39376989    -0.08580
C2427       C  0.79536835  0.54054013  0.37254891     0.30280
C2428       C  0.76559105  0.53567793  0.37219846    -0.20540
C2429       C  0.75579123  0.54734050  0.39290646    -0.08590
C2430       C  0.77532550  0.56138372  0.41540944     0.30290
F2431       F  0.76622450  0.57163802  0.43663468    -0.19110
H2432       H  0.82015848  0.57872382  0.43255722     0.18650
H2433       H  0.75087872  0.52440278  0.35488844     0.18660
F2434       F  0.80430012  0.53003618  0.35139359    -0.19100
C2435       C  0.86056799  0.80775637  0.26577470    -0.20540
C2436       C  0.88857315  0.82083329  0.28017526    -0.08580
C2437       C  0.91626879  0.83449405  0.26575547     0.30280
C2438       C  0.91591181  0.83539579  0.23768807    -0.20540
C2439       C  0.88811090  0.82218802  0.22331135    -0.08590
C2440       C  0.86028985  0.80802465  0.23740817     0.30290
F2441       F  0.83309572  0.79551121  0.22382999    -0.19110
H2442       H  0.83900378  0.79723501  0.27646369     0.18650
H2443       H  0.93754511  0.84645762  0.22705743     0.18660
F2444       F  0.94387255  0.84800173  0.27875873    -0.19100
C2445       C  0.86000458  0.92538828  0.37974170    -0.20540
C2446       C  0.88130359  0.92080087  0.36558492    -0.08580
C2447       C  0.90540210  0.94561535  0.35188064     0.30280
C2448       C  0.90946714  0.97491234  0.35397958    -0.20540
C2449       C  0.88980344  0.97999404  0.36991262    -0.08590
C2450       C  0.86432999  0.95504237  0.38203848     0.30290
F2451       F  0.84476535  0.95962124  0.39716114    -0.19110
H2452       H  0.84164083  0.90662245  0.39078591     0.18650
H2453       H  0.92910504  0.99402391  0.34442643     0.18660
F2454       F  0.92645073  0.94188431  0.33819233    -0.19100
C2455       C  0.95099104  0.74894286  0.37337649    -0.20540
C2456       C  0.93713436  0.75396523  0.39585222    -0.08580
C2457       C  0.93016635  0.73451438  0.41837835     0.30280
C2458       C  0.93484403  0.70944976  0.41748776    -0.20540
C2459       C  0.94672729  0.70329007  0.39429291    -0.08590
C2460       C  0.95576426  0.72395146  0.37254416     0.30290
F2461       F  0.96703038  0.71881377  0.34967171    -0.19110
H2462       H  0.95698773  0.76363948  0.35574595     0.18650
H2463       H  0.92799320  0.69406058  0.43468698     0.18660
F2464       F  0.91737301  0.73862914  0.44072397    -0.19100
C2465       C  0.51902667  0.93588568  0.35274046    -0.20540
C2466       C  0.51446402  0.90993700  0.36697228    -0.08580
C2467       C  0.53975528  0.90744814  0.37549470     0.30280
C2468       C  0.56957257  0.93230170  0.37184137    -0.20540
C2469       C  0.57394301  0.95939165  0.35954486    -0.08590
C2470       C  0.54851253  0.96036377  0.34880788     0.30290
F2471       F  0.55209133  0.48607571  0.33642181    -0.19110
H2472       H  0.49958338  0.93768318  0.34562231     0.18650
H2473       H  0.58887538  0.93135835  0.38056512     0.18660
F2474       F  0.53552375  0.88209539  0.38896799    -0.19100
C2475       C  0.76962944  0.73042734  0.38012861    -0.20540
C2476       C  0.79633542  0.73662361  0.39450159    -0.08580
C2477       C  0.79612642  0.71284030  0.40996756     0.30280
C2478       C  0.77030718  0.68357318  0.41016016    -0.20540
C2479       C  0.74429566  0.67701286  0.39472089    -0.08590
C2480       C  0.74381693  0.70085436  0.38012940     0.30290
F2481       F  0.71864599  0.69546570  0.36549548    -0.19110
H2482       H  0.76898536  0.74822399  0.36826703     0.18650
H2483       H  0.77136650  0.66554753  0.42129362     0.18660
F2484       F  0.82132604  0.71717288  0.42396251    -0.19100
C2485       C  0.84816313  0.90600229  0.73257707    -0.20540
C2486       C  0.82088595  0.88636096  0.71853281    -0.08580
C2487       C  0.79415529  0.86738868  0.73334320     0.30280
C2488       C  0.79506256  0.86827123  0.76170281    -0.20540
C2489       C  0.82254979  0.88807098  0.77559708    -0.08590
C2490       C  0.84909142  0.90704091  0.76055999     0.30290
F2491       F  0.87606918  0.92735537  0.77270542    -0.19110
H2492       H  0.86905047  0.92127938  0.72186791     0.18650
H2493       H  0.77431292  0.85346006  0.77276406     0.18660
F2494       F  0.76735351  0.84789937  0.72055930    -0.19100
C2495       C  0.72774296  0.75642977  0.61165259    -0.20540
C2496       C  0.73441806  0.78549419  0.60241048    -0.08580
C2497       C  0.71130867  0.78867442  0.58920930     0.30280
C2498       C  0.68150486  0.76371586  0.58702491    -0.20540
C2499       C  0.67419386  0.73527719  0.59811054    -0.08590
C2500       C  0.69760051  0.73143703  0.60982321     0.30290
F2501       F  0.69081080  0.70419392  0.62121045    -0.19110
H2502       H  0.74521175  0.75363038  0.62201364     0.18650
H2503       H  0.66361889  0.76716210  0.57840202     0.18660
F2504       F  0.71724251  0.81644761  0.57970877    -0.19100
C2505       C  0.94535720  0.55024595  0.64916812    -0.20420
C2506       C  0.95181204  0.57121064  0.62806169    -0.08580
C2507       C  0.93303489  0.56156512  0.60476082     0.30280
C2508       C  0.90975733  0.53068797  0.60196528    -0.20540
C2509       C  0.90481438  0.50913955  0.62241418    -0.08590
C2510       C  0.92222249  0.51970608  0.64656619     0.30290
F2511       F  0.91830453  0.00032509  0.66729571    -0.19110
H2512       H  0.95952311  0.55718309  0.66730385     0.18650
H2513       H  0.89658399  0.52339719  0.58330627     0.18660
F2514       F  0.93886874  0.58121339  0.58381470    -0.19100
C2515       C  0.69697741  0.90884330  0.60321975    -0.20540
C2516       C  0.70305600  0.93916827  0.60531660    -0.08580
C2517       C  0.73373021  0.96343274  0.60476330     0.30280
C2518       C  0.75776768  0.95706037  0.60221152    -0.20540
C2519       C  0.75125491  0.92650597  0.60057758    -0.08590
C2520       C  0.72065767  0.90254774  0.60113139     0.30290
F2521       F  0.71369556  0.87280196  0.60035718    -0.19110
H2522       H  0.67360819  0.88968507  0.60377321     0.18650
H2523       H  0.78135465  0.97576426  0.60251727     0.18660
F2524       F  0.74037337  0.49299841  0.60640109    -0.19100
C2525       C  0.93188808  0.86189528  0.63052411    -0.20540
C2526       C  0.92338572  0.88213064  0.61926246    -0.08580
C2527       C  0.94518038  0.90826415  0.60525611     0.30280
C2528       C  0.97531084  0.91493477  0.60359639    -0.20540
C2529       C  0.98470033  0.89598604  0.61615185    -0.08590
C2530       C  0.96256367  0.86886983  0.62916835     0.30290
F2531       F  0.97060161  0.84954180  0.64096761    -0.19110
H2532       H  0.91524585  0.84162836  0.64132949     0.18650
H2533       H  0.99159746  0.93584098  0.59332374     0.18660
F2534       F  0.93744126  0.92799093  0.59372664    -0.19100
C2535       C  0.85251966  0.84515138  0.48227115    -0.20540
C2536       C  0.88417806  0.86153188  0.47704045    -0.08580
C2537       C  0.90326600  0.88755059  0.49282526     0.30280
C2538       C  0.89089015  0.89642128  0.51381818    -0.20540
C2539       C  0.85925522  0.87982245  0.51913142    -0.08590
C2540       C  0.84016531  0.85416232  0.50305818     0.30290
F2541       F  0.80956994  0.83746167  0.50786931    -0.19110
H2542       H  0.83721047  0.82554211  0.46993215     0.18650
H2543       H  0.90620701  0.91543666  0.52672346     0.18660
F2544       F  0.93399998  0.90362305  0.48862166    -0.19100
loop_ 
_geom_bond_atom_site_label_1 
_geom_bond_atom_site_label_2 
_geom_bond_distance 
_geom_bond_site_symmetry_2 
_ccdc_geom_bond_type 
Zn1           O5   1.974       .  S
Zn1           O6   2.092       .  S
Zn1          O10   2.059       .  S
Zn1          O17   2.070       .  S
Zn2           O5   1.961       .  S
Zn2           O7   2.050       .  S
Zn2           O9   1.983       .  S
Zn2          O13   2.053       .  S
Zn3           O5   1.887       .  S
Zn3           O8   1.976       .  S
Zn3          O11   1.954       .  S
Zn3          O14   1.970       .  S
Zn4           O5   1.913       .  S
Zn4          O12   2.038       .  S
Zn4          O15   1.988       .  S
Zn4          O16   1.976       .  S
O6           C18   1.284       .  A
O7           C19   1.277       .  A
O8           C20   1.269       .  A
O9           C18   1.270       .  A
O10          C20   1.277       .  A
O11          C19   1.268       .  A
O12          C21   1.274       .  A
O13          C22   1.277       .  A
O14          C21   1.270       .  A
O15          C22   1.271       .  A
O16          C23   1.272       .  A
O17          C23   1.283       .  A
C18         C631   1.478       .  S
C19         C618   1.466       .  S
C20        C1237   1.489       .  S
C21         C578   1.480       .  S
C22         C588   1.474       .  S
C23         C611   1.471       .  S
Zn24         O28   1.970       .  S
Zn24         O29   2.060       .  S
Zn24         O33   2.049       .  S
Zn24         O40   2.041       .  S
Zn25         O28   1.912       .  S
Zn25         O30   2.017       .  S
Zn25         O32   1.963       .  S
Zn25         O36   2.003       .  S
Zn26         O28   1.920       .  S
Zn26         O31   1.968       .  S
Zn26         O34   2.052       .  S
Zn26         O37   2.067       .  S
Zn27         O28   1.919       .  S
Zn27         O35   1.979       .  S
Zn27         O38   1.994       .  S
Zn27         O39   1.985       .  S
O29          C41   1.279       .  A
O30          C42   1.272       .  A
O31          C43   1.270       .  A
O32          C41   1.270       .  A
O33          C43   1.279       .  A
O34          C42   1.278       .  A
O35          C44   1.272       .  A
O36          C45   1.273       .  A
O37          C44   1.283       .  A
O38          C45   1.268       .  A
O39          C46   1.271       .  A
O40          C46   1.276       .  A
C41         C538   1.468       .  S
C42         C628   1.485       .  S
C43         C568   1.483       .  S
C44         C548   1.489       .  S
C45        C1830   1.457       .  S
C46         C528   1.477       .  S
Zn47         O51   1.939       .  S
Zn47         O52   1.997       .  S
Zn47         O56   2.036       .  S
Zn47         O63   2.017       .  S
Zn48         O51   1.920       .  S
Zn48         O53   2.052       .  S
Zn48         O55   2.026       .  S
Zn48         O59   1.958       .  S
Zn49         O51   1.871       .  S
Zn49         O54   1.959       .  S
Zn49         O57   1.986       .  S
Zn49        O696   1.947       .  S
Zn50         O51   1.951       .  S
Zn50         O61   2.044       .  S
Zn50         O62   2.039       .  S
Zn50        O694   2.054   1_545  S
O52          C64   1.275       .  A
O53          C65   1.275       .  A
O54          C66   1.270       .  A
O55          C64   1.280       .  A
O56          C66   1.272       .  A
O57          C65   1.268       .  A
O58        Zn686   2.054       .  S
O58          C67   1.278       .  A
O59          C68   1.269       .  A
O60        Zn685   1.947       .  S
O60          C67   1.268       .  A
O61          C68   1.279       .  A
O62          C69   1.278       .  A
O63          C69   1.276       .  A
C64         C571   1.474       .  S
C65         C498   1.481       .  S
C66         C508   1.471       .  S
C67         C561   1.465       .  S
C68         C521   1.475       .  S
C69         C488   1.490       .  S
Zn70         O74   1.934       .  S
Zn70         O75   2.062       .  S
Zn70         O79   2.071       .  S
Zn70         O86   1.966       .  S
Zn71         O74   1.892       .  S
Zn71         O76   1.982       .  S
Zn71         O78   1.979       .  S
Zn71        O718   1.958       .  S
Zn72         O74   1.921       .  S
Zn72         O77   1.973       .  S
Zn72         O80   2.022       .  S
Zn72         O83   1.993       .  S
Zn73         O74   1.974       .  S
Zn73         O81   2.056       .  S
Zn73         O85   2.083       .  S
Zn73        O720   2.078       .  S
O75          C87   1.278       .  A
O76          C88   1.271       .  A
O77          C89   1.271       .  A
O78          C87   1.269       .  A
O79          C89   1.282       .  A
O80          C88   1.272       .  A
O81          C90   1.278       .  A
O82        Zn707   1.958       .  S
O82          C91   1.269   1_565  A
O83          C90   1.273       .  A
O84        Zn709   2.078   1_545  S
O84          C91   1.281       .  A
O85          C92   1.282       .  A
O86          C92   1.270       .  A
C87         C501   1.481       .  S
C88        C1893   1.478   1_455  S
C89         C471   1.481       .  S
C90         C458   1.488       .  S
C91         C478   1.467       .  S
C92         C608   1.480       .  S
Zn93         O97   1.950       .  S
Zn93        O102   1.968       .  S
Zn93        O109   2.046       .  S
Zn93       O1370   2.054   1_455  S
Zn94         O97   1.910       .  S
Zn94         O99   2.002       .  S
Zn94        O105   2.004       .  S
Zn94       O1373   1.975       .  S
Zn95         O97   1.964       .  S
Zn95        O100   2.088       .  S
Zn95        O103   2.044       .  S
Zn95        O106   2.052       .  S
Zn96         O97   1.922       .  S
Zn96        O104   1.996       .  S
Zn96        O107   2.031       .  S
Zn96        O108   1.995       .  S
O98       Zn1365   2.054       .  S
O98         C110   1.279       .  A
O99         C111   1.273       .  A
O100        C112   1.283       .  A
O101      Zn1366   1.975       .  S
O101        C110   1.272       .  A
O102        C112   1.269       .  A
O103        C111   1.278       .  A
O104        C113   1.273       .  A
O105        C114   1.271       .  A
O106        C113   1.279       .  A
O107        C114   1.273       .  A
O108        C115   1.273       .  A
O109        C115   1.278       .  A
C110        C598   1.477       .  S
C111        C481   1.488       .  S
C112        C451   1.487       .  S
C113        C591   1.467       .  S
C114        C438   1.476       .  S
C115        C468   1.474       .  S
Zn116       O120   1.960       .  S
Zn116       O121   2.048       .  S
Zn116       O132   2.068       .  S
Zn116      O1397   2.079       .  S
Zn117       O120   1.909       .  S
Zn117       O122   2.004       .  S
Zn117       O124   1.980       .  S
Zn117       O128   1.968       .  S
Zn118       O120   1.885       .  S
Zn118       O126   2.013       .  S
Zn118       O129   2.006       .  S
Zn118      O1395   1.938       .  S
Zn119       O120   1.911       .  S
Zn119       O127   2.046       .  S
Zn119       O130   2.041       .  S
Zn119       O131   1.985       .  S
O121        C133   1.277       .  A
O122        C134   1.268       .  A
O123      Zn1390   1.938       .  S
O123        C135   1.267   1_655  A
O124        C133   1.271       .  A
O125      Zn1388   2.079   1_455  S
O125        C135   1.282       .  A
O126        C134   1.272       .  A
O127        C136   1.278       .  A
O128        C137   1.272       .  A
O129        C136   1.271       .  A
O130        C137   1.282       .  A
O131        C138   1.273       .  A
O132        C138   1.283       .  A
C133        C431   1.474       .  S
C134       C1177   1.462   1_545  S
C135        C511   1.482       .  S
C136        C448   1.491       .  S
C137        C518   1.478       .  S
C138        C551   1.484       .  S
Zn139       O143   1.906       .  S
Zn139       O144   1.973       .  S
Zn139       O148   1.993       .  S
Zn139       O155   1.982       .  S
Zn140       O143   1.920       .  S
Zn140       O145   1.994       .  S
Zn140       O147   2.034       .  S
Zn140       O151   1.986       .  S
Zn141       O143   1.945       .  S
Zn141       O146   2.038       .  S
Zn141       O149   2.048       .  S
Zn141       O152   1.965       .  S
Zn142       O143   1.975       .  S
Zn142       O150   2.103       .  S
Zn142       O153   2.084       .  S
Zn142       O154   2.057       .  S
O144        C156   1.269       .  A
O145        C157   1.272       .  A
O146        C158   1.276       .  A
O147        C156   1.274       .  A
O148        C158   1.272       .  A
O149        C157   1.277       .  A
O150        C159   1.286       .  A
O151        C160   1.273       .  A
O152        C159   1.269       .  A
O153        C160   1.284       .  A
O154        C161   1.279       .  A
O155        C161   1.270       .  A
C156        C581   1.481       .  S
C157        C381   1.472       .  S
C158        C411   1.473       .  S
C159        C418   1.487       .  S
C160        C401   1.493       .  S
C161       C1024   1.489       .  S
Zn162       O166   1.891       .  S
Zn162       O167   2.031       .  S
Zn162       O171   1.970       .  S
Zn162       O178   1.978       .  S
Zn163       O166   1.894       .  S
Zn163       O168   1.988       .  S
Zn163       O170   1.989       .  S
Zn163       O174   1.961       .  S
Zn164       O166   1.970       .  S
Zn164       O169   2.076       .  S
Zn164       O172   2.056       .  S
Zn164       O175   2.098       .  S
Zn165       O166   1.949       .  S
Zn165       O173   1.968       .  S
Zn165       O176   2.052       .  S
Zn165       O177   2.072       .  S
O167        C179   1.273       .  A
O168        C180   1.271       .  A
O169        C181   1.283       .  A
O170        C179   1.270       .  A
O171        C181   1.273       .  A
O172        C180   1.278       .  A
O173        C182   1.269       .  A
O174        C183   1.271       .  A
O175        C182   1.286       .  A
O176        C183   1.279       .  A
O177        C184   1.280       .  A
O178        C184   1.270       .  A
C179        C531   1.467       .  S
C180       C1610   1.489       .  S
C181        C368   1.486       .  S
C182        C421   1.490       .  S
C183        C358   1.478       .  S
C184        C351   1.475       .  S
Zn185       O189   1.963       .  S
Zn185       O190   2.042       .  S
Zn185       O194   2.066       .  S
Zn185       O837   2.069   1_545  S
Zn186       O189   1.933       .  S
Zn186       O191   1.997       .  S
Zn186       O193   2.012       .  S
Zn186       O197   2.015       .  S
Zn187       O189   1.941       .  S
Zn187       O192   1.984       .  S
Zn187       O195   2.056       .  S
Zn187       O198   2.051       .  S
Zn188       O189   1.916       .  S
Zn188       O196   1.992       .  S
Zn188       O199   2.011       .  S
Zn188       O836   1.974       .  S
O190        C202   1.277       .  A
O191        C203   1.274       .  A
O192        C204   1.271       .  A
O193        C202   1.275       .  A
O194        C204   1.281       .  A
O195        C203   1.282       .  A
O196        C205   1.270       .  A
O197        C206   1.272       .  A
O198        C205   1.277       .  A
O199        C206   1.273       .  A
O200       Zn824   1.974       .  S
O200        C207   1.270       .  A
O201       Zn821   2.069       .  S
O201        C207   1.280       .  A
C202        C491   1.490       .  S
C203        C348   1.482       .  S
C204        C331   1.484       .  S
C205        C308   1.485       .  S
C206        C318   1.482       .  S
C207        C341   1.467       .  S
Zn208       O212   1.928       .  S
Zn208       O213   2.005       .  S
Zn208       O217   2.022       .  S
Zn208       O224   1.990       .  S
Zn209       O212   1.961       .  S
Zn209       O216   2.037       .  S
Zn209       O220   2.068       .  S
Zn209       O850   2.062       .  S
Zn210       O212   1.903       .  S
Zn210       O215   2.016       .  S
Zn210       O221   1.985       .  S
Zn210       O854   1.944       .  S
Zn211       O212   1.930       .  S
Zn211       O219   2.056       .  S
Zn211       O222   1.992       .  S
Zn211       O223   2.036       .  S
O213        C225   1.274       .  A
O214       Zn845   2.062   1_545  S
O214        C226   1.281       .  A
O215        C227   1.272       .  A
O216        C225   1.275       .  A
O217        C227   1.271       .  A
O218       Zn846   1.944       .  S
O218        C226   1.270   1_565  A
O219        C228   1.277       .  A
O220        C229   1.281       .  A
O221        C228   1.269       .  A
O222        C229   1.271       .  A
O223        C230   1.282       .  A
O224        C230   1.275       .  A
C225        C461   1.485       .  S
C226        C298   1.472       .  S
C227       C1680   1.474   1_455  S
C228        C311   1.486       .  S
C229        C398   1.477       .  S
C230        C288   1.477       .  S
Zn231       O235   1.936       .  S
Zn231       O236   2.013       .  S
Zn231       O240   2.005       .  S
Zn231       O247   1.993       .  S
Zn232       O235   1.962       .  S
Zn232       O239   2.034       .  S
Zn232       O243   2.055       .  S
Zn232      O1509   2.065   1_455  S
Zn233       O235   1.912       .  S
Zn233       O238   1.993       .  S
Zn233       O244   2.015       .  S
Zn233      O1513   1.961       .  S
Zn234       O235   1.923       .  S
Zn234       O242   2.030       .  S
Zn234       O245   1.962       .  S
Zn234       O246   2.041       .  S
O236        C248   1.275       .  A
O237      Zn1504   2.065       .  S
O237        C249   1.278       .  A
O238        C250   1.274       .  A
O239        C248   1.277       .  A
O240        C250   1.270       .  A
O241      Zn1505   1.961       .  S
O241        C249   1.268       .  A
O242        C251   1.276       .  A
O243        C252   1.279       .  A
O244        C251   1.272       .  A
O245        C252   1.269       .  A
O246        C253   1.279       .  A
O247        C253   1.272       .  A
C248        C441   1.480       .  S
C249        C391   1.465       .  S
C250        C301   1.460       .  S
C251        C281   1.491       .  S
C252        C291   1.483       .  S
C253        C378   1.475       .  S
Zn254       O258   1.920       .  S
Zn254       O259   2.003       .  S
Zn254       O263   1.982       .  S
Zn254       O270   1.983       .  S
Zn255       O258   1.917       .  S
Zn255       O260   1.993       .  S
Zn255       O262   2.019       .  S
Zn255       O266   2.007       .  S
Zn256       O258   1.951       .  S
Zn256       O264   2.039       .  S
Zn256       O267   1.966       .  S
Zn256      O1533   2.037       .  S
Zn257       O258   1.970       .  S
Zn257       O265   2.082       .  S
Zn257       O268   2.053       .  S
Zn257       O269   2.038       .  S
O259        C271   1.271       .  A
O260        C272   1.273       .  A
O261      Zn1528   2.037   1_455  S
O261        C273   1.276       .  A
O262        C271   1.272       .  A
O263       C1545   1.270       .  A
O264        C272   1.275       .  A
O265        C274   1.282       .  A
O266        C275   1.275       .  A
O267        C274   1.268       .  A
O268        C275   1.281       .  A
O269        C276   1.274       .  A
O270        C276   1.270       .  A
C271        C428   1.468       .  S
C272        C371   1.471       .  S
C273       O1535   1.270   1_455  A
C273        C321   1.463       .  S
C274        C278   1.483       .  S
C275        C328   1.479       .  S
C276        C997   1.464   1_545  S
C277        C278   1.404       .  A
C277       C1554   1.406   1_554  A
C277        H284   1.083       .  S
C278        C279   1.409       .  A
C279       C1552   1.396   1_554  A
C279        F286   1.358       .  S
C280        C281   1.405       .  A
C280       C1551   1.396   1_456  A
C280        H285   1.083       .  S
C281        C282   1.414   1_455  A
C282       C1549   1.406   1_556  A
C282        F283   1.357       .  S
C287        C288   1.409       .  A
C287        C292   1.400       .  A
C287        H294   1.083       .  S
C288        C289   1.402       .  A
C289        C290   1.392       .  A
C289        F296   1.358       .  S
C290        C291   1.410       .  A
C290        H295   1.083       .  S
C291        C292   1.406       .  A
C292       F1565   1.357       .  S
F293       C1564   1.357       .  S
C297        C298   1.406       .  A
C297        C302   1.405       .  A
C297        H304   1.083       .  S
C298        C299   1.410       .  A
C299        C300   1.384       .  A
C299        F942   1.359       .  S
C300        C301   1.395       .  A
C300        H305   1.084       .  S
C301        C302   1.406       .  A
C302        F303   1.357       .  S
F306        C935   1.359       .  S
C307        C308   1.407       .  A
C307        C948   1.405   1_544  A
C307        H314   1.083       .  S
C308        C309   1.408       .  A
C309        C946   1.397   1_544  A
C309        F316   1.358       .  S
C310        C311   1.406       .  A
C310        C945   1.397   1_556  A
C310        H315   1.083       .  S
C311        C312   1.409       .  A
C312        C943   1.405   1_556  A
C312        F313   1.357       .  S
C317        C318   1.410       .  A
C317        C322   1.401       .  A
C317        H324   1.083       .  S
C318        C319   1.408       .  A
C319        C320   1.395       .  A
C319        F326   1.358       .  S
C320        C321   1.401       .  A
C320        H325   1.084       .  S
C321        C322   1.400       .  A
C322        F323   1.357       .  S
C327        C328   1.407       .  A
C327        C332   1.401       .  A
C327        H334   1.084       .  S
C328        C329   1.403       .  A
C329        C330   1.399       .  A
C329        F336   1.357       .  S
C330        C331   1.410       .  A
C330        H335   1.084       .  S
C331        C332   1.406       .  A
C332        F333   1.357       .  S
C337        C338   1.410       .  A
C337        C342   1.396       .  A
C337        H344   1.083       .  S
C338       C1452   1.489   1_455  S
C338        C339   1.410       .  A
C339        C340   1.403       .  A
C339        F346   1.357       .  S
C340        C341   1.404       .  A
C340        H345   1.084       .  S
C341        C342   1.400       .  A
C342        F343   1.358       .  S
C347        C348   1.401       .  A
C347        C352   1.398       .  A
C347        H354   1.084       .  S
C348        C349   1.413       .  A
C349        C350   1.403       .  A
C349        F356   1.358       .  S
C350        C351   1.400       .  A
C350        H355   1.083       .  S
C351        C352   1.409       .  A
C352        F353   1.358       .  S
C357        C358   1.407       .  A
C357        C362   1.408       .  A
C357        H364   1.083       .  S
C358        C359   1.411       .  A
C359        C360   1.386       .  A
C359        F366   1.359       .  S
C360        C361   1.394       .  A
C360        H365   1.084       .  S
C361        C912   1.464       .  S
C361        C362   1.407       .  A
C362        F363   1.357       .  S
C367        C368   1.409       .  A
C367        C372   1.390       .  A
C367        H374   1.084       .  S
C368        C369   1.409       .  A
C369        C370   1.407       .  A
C369        F376   1.357       .  S
C370        C371   1.406       .  A
C370        H375   1.084       .  S
C371        C372   1.399       .  A
C372        F373   1.358       .  S
C377        C378   1.401       .  A
C377        C382   1.397       .  A
C377        H384   1.084       .  S
C378        C379   1.410       .  A
C379        C380   1.402       .  A
C379        F386   1.357       .  S
C380        C381   1.401       .  A
C380        H385   1.083       .  S
C381        C382   1.407       .  A
C382        F383   1.358       .  S
C387        C388   1.407       .  A
C387        C392   1.403       .  A
C387        H394   1.083       .  S
C388        C797   1.489   1_545  S
C388        C389   1.414       .  A
C389        C390   1.395       .  A
C389       F1032   1.358       .  S
C390        C391   1.398       .  A
C390        H395   1.084       .  S
C391        C392   1.405       .  A
C392        F393   1.357       .  S
F396       C1025   1.358       .  S
C397        C398   1.407       .  A
C397        C402   1.406       .  A
C397        H404   1.084       .  S
C398        C399   1.400       .  A
C399        C400   1.397       .  A
C399        F406   1.358       .  S
C400        C401   1.412       .  A
C400        H405   1.083       .  S
C401        C402   1.409       .  A
C402        F403   1.357       .  S
C407        C408   1.403       .  A
C407        C412   1.400       .  A
C407        H414   1.084       .  S
C408       C1499   1.474       .  S
C408        C409   1.406       .  A
C409        C410   1.398       .  A
C409        F416   1.358       .  S
C410        C411   1.403       .  A
C410        H415   1.084       .  S
C411        C412   1.406       .  A
C412        F413   1.356       .  S
C417        C418   1.414       .  A
C417        C422   1.402   1_556  A
C417        H424   1.078       .  S
C418        C419   1.400   1_556  A
C419        C420   1.403       .  A
C419        F426   1.357       .  S
C420        C421   1.416       .  A
C420        H425   1.081       .  S
C421        C422   1.401       .  A
C422        F423   1.357   1_554  S
C427        C428   1.399       .  A
C427        C432   1.392       .  A
C427        H434   1.084       .  S
C428        C429   1.406       .  A
C429        C430   1.403       .  A
C429        F436   1.357       .  S
C430        C431   1.404       .  A
C430        H435   1.083       .  S
C431        C432   1.408       .  A
C432        F433   1.358       .  S
C437        C438   1.404       .  A
C437        C442   1.398       .  A
C437        H444   1.084       .  S
C438        C439   1.405       .  A
C439        C440   1.400       .  A
C439        F446   1.357       .  S
C440        C441   1.407       .  A
C440        H445   1.083       .  S
C441        C442   1.407       .  A
C442        F443   1.358       .  S
C447        C448   1.412       .  A
C447       C1724   1.406       .  A
C447        H454   1.083       .  S
C448        C449   1.408       .  A
C449       C1722   1.397       .  A
C449        F456   1.358       .  S
C450        C451   1.408   1_655  A
C450       C1721   1.397       .  A
C450        H455   1.084       .  S
C451        C452   1.405       .  A
C452       C1719   1.406   1_455  A
C452        F453   1.357       .  S
C457        C458   1.406       .  A
C457        C462   1.393       .  A
C457        H464   1.083       .  S
C458        C459   1.410       .  A
C459        C460   1.405       .  A
C459        F466   1.357       .  S
C460        C461   1.408       .  A
C460        H465   1.083       .  S
C461        C462   1.407       .  A
C462        F463   1.358       .  S
C467        C468   1.399       .  A
C467        C472   1.391       .  A
C467        H474   1.084       .  S
C468        C469   1.408       .  A
C469        C470   1.407       .  A
C469        F476   1.357       .  S
C470        C471   1.406       .  A
C470        H475   1.083       .  S
C471        C472   1.410       .  A
C472        F473   1.358       .  S
C477        C478   1.401       .  A
C477        C482   1.396       .  A
C477        H484   1.084       .  S
C478        C479   1.404       .  A
C479        C480   1.402       .  A
C479        F486   1.357       .  S
C480        C481   1.408       .  A
C480        H485   1.083       .  S
C481        C482   1.412       .  A
C482        F483   1.358       .  S
C487        C488   1.408       .  A
C487        C492   1.403       .  A
C487        H494   1.083       .  S
C488        C489   1.410       .  A
C489        C490   1.397       .  A
C489        F496   1.357       .  S
C490        C491   1.406       .  A
C490        H495   1.083       .  S
C491        C492   1.411       .  A
C492        F493   1.357       .  S
C497        C498   1.406       .  A
C497       C1138   1.405   1_545  A
C497        H504   1.083       .  S
C498        C499   1.407       .  A
C499       C1136   1.397   1_545  A
C499        F506   1.358       .  S
C500        C501   1.405       .  A
C500       C1135   1.397       .  A
C500        H505   1.084       .  S
C501        C502   1.408       .  A
C502       C1133   1.405       .  A
C502        F503   1.357       .  S
C507        C508   1.396       .  A
C507        C512   1.376       .  A
C507        H514   1.084       .  S
C508        C509   1.409       .  A
C509        C510   1.411       .  A
C509        F516   1.357       .  S
C510        C511   1.409       .  A
C510        H515   1.083       .  S
C511        C512   1.413       .  A
C512       F1785   1.359       .  S
F513       C1784   1.359       .  S
C517        C518   1.400       .  A
C517        C522   1.393       .  A
C517        H524   1.083       .  S
C518        C519   1.414       .  A
C519        C520   1.395       .  A
C519        F526   1.358       .  S
C520        C521   1.399       .  A
C520        H525   1.084       .  S
C521        C522   1.412       .  A
C522        F523   1.358       .  S
C527        C528   1.407       .  A
C527        C532   1.404       .  A
C527        H534   1.083       .  S
C528        C529   1.408       .  A
C529        C530   1.390       .  A
C529        F536   1.358       .  S
C530        C531   1.399       .  A
C530        H535   1.084       .  S
C531        C532   1.405       .  A
C532        F533   1.357       .  S
C537        C538   1.405       .  A
C537        C542   1.404       .  A
C537        H544   1.083       .  S
C538        C539   1.406       .  A
C539        C540   1.391       .  A
C539        F546   1.359       .  S
C540        C541   1.398       .  A
C540        H545   1.084       .  S
C541        C770   1.462       .  S
C541        C542   1.404       .  A
C542        F543   1.357       .  S
C547        C548   1.412       .  A
C547        C552   1.399       .  A
C547        H554   1.083       .  S
C548        C549   1.405       .  A
C549        C550   1.400       .  A
C549        F556   1.357       .  S
C550        C551   1.410       .  A
C550        H555   1.083       .  S
C551        C552   1.403       .  A
C552        F553   1.358       .  S
C557        C558   1.396       .  A
C557        C562   1.387       .  A
C557        H564   1.084   1_455  S
C558       C1317   1.457   1_455  S
C558        C559   1.404       .  A
C559        C560   1.403       .  A
C559        F566   1.357       .  S
C560        C561   1.405       .  A
C560        H565   1.083       .  S
C561        C562   1.406       .  A
C562       F1199   1.359       .  S
F563       C1198   1.359       .  S
C567        C568   1.405       .  A
C567        C572   1.400       .  A
C567        H574   1.083       .  S
C568        C569   1.414       .  A
C569        C570   1.391       .  A
C569        F576   1.358       .  S
C570        C571   1.399       .  A
C570        H575   1.084       .  S
C571        C572   1.409       .  A
C572        F573   1.358       .  S
C577        C578   1.403       .  A
C577        C582   1.386       .  A
C577        H584   1.083       .  S
C578        C579   1.409       .  A
C579        C580   1.405       .  A
C579        F586   1.357       .  S
C580        C581   1.408       .  A
C580        H585   1.083       .  S
C581        C582   1.409       .  A
C582        F583   1.358       .  S
C587        C588   1.403       .  A
C587        C592   1.405       .  A
C587        H594   1.083       .  S
C588        C589   1.407       .  A
C589        C590   1.395       .  A
C589        F596   1.358       .  S
C590        C591   1.398       .  A
C590        H595   1.084       .  S
C591        C592   1.407       .  A
C592        F593   1.357       .  S
C597        C598   1.400       .  A
C597        C602   1.392       .  A
C597        H604   1.084       .  S
C598        C599   1.407       .  A
C599        C600   1.406       .  A
C599        F606   1.357       .  S
C600        C601   1.409       .  A
C600        H605   1.083       .  S
C601        C656   1.489   1_545  S
C601        C602   1.413       .  A
C602       F1239   1.358       .  S
F603       C1238   1.358       .  S
C607        C608   1.405       .  A
C607        C612   1.388       .  A
C607        H614   1.084       .  S
C608        C609   1.408       .  A
C609        C610   1.410       .  A
C609       F1252   1.357       .  S
C610        C611   1.407       .  A
C610        H615   1.083       .  S
C611        C612   1.401       .  A
C612        F613   1.359       .  S
F616       C1245   1.357       .  S
C617        C618   1.402       .  A
C617        C622   1.406       .  A
C617        H624   1.083       .  S
C618        C619   1.404       .  A
C619        C620   1.385       .  A
C619        F626   1.359       .  S
C620        C621   1.402       .  A
C620        H625   1.083       .  S
C621       C1360   1.478       .  S
C621        C622   1.413       .  A
C622        F623   1.357       .  S
C627        C628   1.406       .  A
C627        C632   1.402       .  A
C627        H634   1.084       .  S
C628        C629   1.408       .  A
C629        C630   1.406       .  A
C629        F636   1.357       .  S
C630        C631   1.406       .  A
C630        H635   1.084       .  S
C631        C632   1.405       .  A
C632        F633   1.358       .  S
Zn637       O641   1.974       .  S
Zn637       O642   2.092       .  S
Zn637       O646   2.059       .  S
Zn637       O653   2.070       .  S
Zn638       O641   1.961       .  S
Zn638       O643   2.050       .  S
Zn638       O645   1.983       .  S
Zn638       O649   2.053       .  S
Zn639       O641   1.887       .  S
Zn639       O644   1.976       .  S
Zn639       O647   1.954       .  S
Zn639       O650   1.970       .  S
Zn640       O641   1.913       .  S
Zn640       O648   2.038       .  S
Zn640       O651   1.988       .  S
Zn640       O652   1.976       .  S
O642        C654   1.284       .  A
O643        C655   1.277       .  A
O644        C656   1.269       .  A
O645        C654   1.270       .  A
O646        C656   1.277       .  A
O647        C655   1.268       .  A
O648        C657   1.274       .  A
O649        C658   1.277       .  A
O650        C657   1.270       .  A
O651        C658   1.271       .  A
O652        C659   1.272       .  A
O653        C659   1.283       .  A
C654       C1267   1.478       .  S
C655       C1254   1.466       .  S
C657       C1214   1.480       .  S
C658       C1224   1.474       .  S
C659       C1247   1.471       .  S
Zn660       O664   1.970       .  S
Zn660       O665   2.060       .  S
Zn660       O669   2.049       .  S
Zn660       O676   2.041       .  S
Zn661       O664   1.912       .  S
Zn661       O666   2.017       .  S
Zn661       O668   1.963       .  S
Zn661       O672   2.003       .  S
Zn662       O664   1.920       .  S
Zn662       O667   1.968       .  S
Zn662       O670   2.052       .  S
Zn662       O673   2.067       .  S
Zn663       O664   1.919       .  S
Zn663       O671   1.979       .  S
Zn663       O674   1.994       .  S
Zn663       O675   1.985       .  S
O665        C677   1.279       .  A
O666        C678   1.272       .  A
O667        C679   1.270       .  A
O668        C677   1.270       .  A
O669        C679   1.279       .  A
O670        C678   1.278       .  A
O671        C680   1.272       .  A
O672        C681   1.273       .  A
O673        C680   1.283       .  A
O674        C681   1.268       .  A
O675        C682   1.271       .  A
O676        C682   1.276       .  A
C677       C1174   1.468       .  S
C678       C1264   1.485       .  S
C679       C1204   1.483       .  S
C680       C1184   1.489       .  S
C681       C2466   1.457       .  S
C682       C1164   1.477       .  S
Zn683       O687   1.939       .  S
Zn683       O688   1.997       .  S
Zn683       O692   2.036       .  S
Zn683       O699   2.017       .  S
Zn684       O687   1.920       .  S
Zn684       O689   2.051       .  S
Zn684       O691   2.026       .  S
Zn684       O695   1.958       .  S
Zn685       O687   1.871       .  S
Zn685       O690   1.959       .  S
Zn685       O693   1.986       .  S
Zn686       O687   1.951       .  S
Zn686       O697   2.044       .  S
Zn686       O698   2.039       .  S
O688        C700   1.275       .  A
O689        C701   1.275       .  A
O690        C702   1.270       .  A
O691        C700   1.280       .  A
O692        C702   1.272       .  A
O693        C701   1.268       .  A
O694        C703   1.278       .  A
O695        C704   1.269       .  A
O696        C703   1.268   1_545  A
O697        C704   1.279       .  A
O698        C705   1.278       .  A
O699        C705   1.276       .  A
C700       C1207   1.474       .  S
C701       C1134   1.481       .  S
C702       C1144   1.471       .  S
C703       C1197   1.465       .  S
C704       C1157   1.475       .  S
C705       C1124   1.490       .  S
Zn706       O710   1.934       .  S
Zn706       O711   2.062       .  S
Zn706       O715   2.071       .  S
Zn706       O722   1.966       .  S
Zn707       O710   1.892       .  S
Zn707       O712   1.982       .  S
Zn707       O714   1.979       .  S
Zn708       O710   1.921       .  S
Zn708       O713   1.973       .  S
Zn708       O716   2.022       .  S
Zn708       O719   1.993       .  S
Zn709       O710   1.974       .  S
Zn709       O717   2.056       .  S
Zn709       O721   2.083       .  S
O711        C723   1.278       .  A
O712        C724   1.271       .  A
O713        C725   1.271       .  A
O714        C723   1.269       .  A
O715        C725   1.282       .  A
O716        C724   1.272       .  A
O717        C726   1.278       .  A
O718        C727   1.269       .  A
O719        C726   1.273       .  A
O720        C727   1.281       .  A
O721        C728   1.282       .  A
O722        C728   1.270       .  A
C723       C1137   1.481       .  S
C724       C2529   1.478   1_455  S
C725       C1107   1.481       .  S
C726       C1094   1.488       .  S
C727       C1114   1.467       .  S
C728       C1244   1.480       .  S
Zn729       O733   1.950       .  S
Zn729      O2006   2.054   1_455  S
Zn729       O738   1.968       .  S
Zn729       O745   2.046       .  S
Zn730       O733   1.910       .  S
Zn730       O735   2.002       .  S
Zn730      O2009   1.975       .  S
Zn730       O741   2.004       .  S
Zn731       O733   1.964       .  S
Zn731       O736   2.088       .  S
Zn731       O739   2.044       .  S
Zn731       O742   2.052       .  S
Zn732       O733   1.922       .  S
Zn732       O740   1.996       .  S
Zn732       O743   2.031       .  S
Zn732       O744   1.995       .  S
O734      Zn2001   2.054       .  S
O734        C746   1.279       .  A
O735        C747   1.273       .  A
O736        C748   1.283       .  A
O737      Zn2002   1.975       .  S
O737        C746   1.272       .  A
O738        C748   1.269       .  A
O739        C747   1.278       .  A
O740        C749   1.273       .  A
O741        C750   1.271       .  A
O742        C749   1.279       .  A
O743        C750   1.273       .  A
O744        C751   1.273       .  A
O745        C751   1.278       .  A
C746       C1234   1.477       .  S
C747       C1117   1.488       .  S
C748       C1087   1.487       .  S
C749       C1227   1.467       .  S
C750       C1074   1.476       .  S
C751       C1104   1.474       .  S
Zn752       O756   1.960       .  S
Zn752       O757   2.048       .  S
Zn752      O2033   2.079       .  S
Zn752       O768   2.068       .  S
Zn753       O756   1.909       .  S
Zn753       O758   2.004       .  S
Zn753       O760   1.980       .  S
Zn753       O764   1.968       .  S
Zn754       O756   1.885       .  S
Zn754      O2031   1.938       .  S
Zn754       O762   2.013       .  S
Zn754       O765   2.006       .  S
Zn755       O756   1.911       .  S
Zn755       O763   2.046       .  S
Zn755       O766   2.041       .  S
Zn755       O767   1.985       .  S
O757        C769   1.277       .  A
O758        C770   1.268       .  A
O759      Zn2026   1.938       .  S
O759        C771   1.267   1_655  A
O760        C769   1.271       .  A
O761      Zn2024   2.079   1_455  S
O761        C771   1.282       .  A
O762        C770   1.272       .  A
O763        C772   1.278       .  A
O764        C773   1.272       .  A
O765        C772   1.271       .  A
O766        C773   1.282       .  A
O767        C774   1.273       .  A
O768        C774   1.283       .  A
C769       C1067   1.474       .  S
C771       C1147   1.482       .  S
C772       C1084   1.491       .  S
C773       C1154   1.478       .  S
C774       C1187   1.484       .  S
Zn775       O779   1.906       .  S
Zn775       O780   1.973       .  S
Zn775       O784   1.993       .  S
Zn775       O791   1.982       .  S
Zn776       O779   1.920       .  S
Zn776       O781   1.994       .  S
Zn776       O783   2.034       .  S
Zn776       O787   1.986       .  S
Zn777       O779   1.945       .  S
Zn777       O782   2.038       .  S
Zn777       O785   2.048       .  S
Zn777       O788   1.965       .  S
Zn778       O779   1.975       .  S
Zn778       O786   2.103       .  S
Zn778       O789   2.084       .  S
Zn778       O790   2.056       .  S
O780        C792   1.269       .  A
O781        C793   1.272       .  A
O782        C794   1.277       .  A
O783        C792   1.274       .  A
O784        C794   1.272       .  A
O785        C793   1.277       .  A
O786        C795   1.286       .  A
O787        C796   1.273       .  A
O788        C795   1.269       .  A
O789        C796   1.284       .  A
O790        C797   1.279       .  A
O791        C797   1.270       .  A
C792       C1217   1.481       .  S
C793       C1017   1.472       .  S
C794       C1047   1.474       .  S
C795       C1054   1.487       .  S
C796       C1037   1.493       .  S
Zn798       O802   1.891       .  S
Zn798       O803   2.031       .  S
Zn798       O807   1.970       .  S
Zn798       O814   1.978       .  S
Zn799       O802   1.894       .  S
Zn799       O804   1.988       .  S
Zn799       O806   1.989       .  S
Zn799       O810   1.961       .  S
Zn800       O802   1.970       .  S
Zn800       O805   2.076       .  S
Zn800       O808   2.056       .  S
Zn800       O811   2.098       .  S
Zn801       O802   1.949       .  S
Zn801       O809   1.968       .  S
Zn801       O812   2.052       .  S
Zn801       O813   2.072       .  S
O803        C815   1.273       .  A
O804        C816   1.271       .  A
O805        C817   1.283       .  A
O806        C815   1.270       .  A
O807        C817   1.273       .  A
O808        C816   1.278       .  A
O809        C818   1.269       .  A
O810        C819   1.271       .  A
O811        C818   1.286       .  A
O812        C819   1.279       .  A
O813        C820   1.280       .  A
O814        C820   1.270       .  A
C815       C1167   1.467       .  S
C816       C2246   1.489       .  S
C817       C1004   1.486       .  S
C818       C1057   1.490       .  S
C819        C994   1.478       .  S
C820        C987   1.475       .  S
Zn821       O825   1.963       .  S
Zn821       O826   2.042       .  S
Zn821       O830   2.066       .  S
Zn822       O825   1.933       .  S
Zn822       O827   1.997       .  S
Zn822       O829   2.012       .  S
Zn822       O833   2.015       .  S
Zn823       O825   1.941       .  S
Zn823       O828   1.984       .  S
Zn823       O831   2.056       .  S
Zn823       O834   2.051       .  S
Zn824       O825   1.916       .  S
Zn824       O832   1.992       .  S
Zn824       O835   2.011       .  S
O826        C838   1.277       .  A
O827        C839   1.274       .  A
O828        C840   1.271       .  A
O829        C838   1.275       .  A
O830        C840   1.281       .  A
O831        C839   1.282       .  A
O832        C841   1.270       .  A
O833        C842   1.272       .  A
O834        C841   1.277       .  A
O835        C842   1.273       .  A
O836        C843   1.270   1_545  A
O837        C843   1.280       .  A
C838       C1127   1.490       .  S
C839        C984   1.482       .  S
C840        C967   1.484       .  S
C841        C944   1.485       .  S
C842        C954   1.482       .  S
C843        C977   1.467       .  S
Zn844       O848   1.928       .  S
Zn844       O849   2.005       .  S
Zn844       O853   2.022       .  S
Zn844       O860   1.990       .  S
Zn845       O848   1.961       .  S
Zn845       O852   2.037       .  S
Zn845       O856   2.069       .  S
Zn846       O848   1.903       .  S
Zn846       O851   2.016       .  S
Zn846       O857   1.985       .  S
Zn847       O848   1.930       .  S
Zn847       O855   2.056       .  S
Zn847       O858   1.992       .  S
Zn847       O859   2.036       .  S
O849        C861   1.274       .  A
O850        C862   1.281       .  A
O851        C863   1.272       .  A
O852        C861   1.275       .  A
O853        C863   1.271       .  A
O854        C862   1.270       .  A
O855        C864   1.277       .  A
O856        C865   1.281       .  A
O857        C864   1.269       .  A
O858        C865   1.271       .  A
O859        C866   1.282       .  A
O860        C866   1.275       .  A
C861       C1097   1.485       .  S
C862        C934   1.472       .  S
C863       C2316   1.474   1_455  S
C864        C947   1.486       .  S
C865       C1034   1.477       .  S
C866        C924   1.477       .  S
Zn867       O871   1.936       .  S
Zn867       O872   2.013       .  S
Zn867       O876   2.005       .  S
Zn867       O883   1.993       .  S
Zn868       O871   1.962       .  S
Zn868      O2145   2.065   1_455  S
Zn868       O875   2.034       .  S
Zn868       O879   2.055       .  S
Zn869       O871   1.912       .  S
Zn869       O874   1.993       .  S
Zn869      O2149   1.961       .  S
Zn869       O880   2.015       .  S
Zn870       O871   1.923       .  S
Zn870       O878   2.030       .  S
Zn870       O881   1.962       .  S
Zn870       O882   2.041       .  S
O872        C884   1.275       .  A
O873      Zn2140   2.065       .  S
O873        C885   1.278       .  A
O874        C886   1.274       .  A
O875        C884   1.277       .  A
O876        C886   1.270       .  A
O877      Zn2141   1.961       .  S
O877        C885   1.268       .  A
O878        C887   1.276       .  A
O879        C888   1.279       .  A
O880        C887   1.272       .  A
O881        C888   1.269       .  A
O882        C889   1.279       .  A
O883        C889   1.272       .  A
C884       C1077   1.480       .  S
C885       C1027   1.465       .  S
C886        C937   1.460       .  S
C887        C917   1.491       .  S
C888        C927   1.483       .  S
C889       C1014   1.475       .  S
Zn890       O894   1.920       .  S
Zn890       O895   2.003       .  S
Zn890       O899   1.982       .  S
Zn890       O906   1.983       .  S
Zn891       O894   1.917       .  S
Zn891       O896   1.993       .  S
Zn891       O898   2.019       .  S
Zn891       O902   2.007       .  S
Zn892       O894   1.951       .  S
Zn892      O2169   2.037       .  S
Zn892       O900   2.039       .  S
Zn892       O903   1.966       .  S
Zn893       O894   1.970       .  S
Zn893       O901   2.082       .  S
Zn893       O904   2.053       .  S
Zn893       O905   2.038       .  S
O895        C907   1.271       .  A
O896        C908   1.273       .  A
O897      Zn2164   2.037   1_455  S
O897        C909   1.276       .  A
O898        C907   1.272       .  A
O899       C2181   1.270       .  A
O900        C908   1.275       .  A
O901        C910   1.282       .  A
O902        C911   1.275       .  A
O903        C910   1.268       .  A
O904        C911   1.281       .  A
O905        C912   1.274       .  A
O906        C912   1.270       .  A
C907       C1064   1.468       .  S
C908       C1007   1.471       .  S
C909       O2171   1.270   1_455  A
C909        C957   1.463       .  S
C910        C914   1.483       .  S
C911        C964   1.479       .  S
C913        C914   1.404       .  A
C913       C2190   1.406   1_554  A
C913        H920   1.083       .  S
C914        C915   1.409       .  A
C915       C2188   1.396   1_554  A
C915        F922   1.358       .  S
C916       C2187   1.396   1_456  A
C916        C917   1.405       .  A
C916        H921   1.083       .  S
C917        C918   1.414   1_455  A
C918       C2185   1.406   1_556  A
C918        F919   1.357       .  S
C923        C924   1.409       .  A
C923        C928   1.400       .  A
C923        H930   1.083       .  S
C924        C925   1.402       .  A
C925        C926   1.392       .  A
C925        F932   1.358       .  S
C926        C927   1.410       .  A
C926        H931   1.083       .  S
C927        C928   1.406       .  A
C928       F2201   1.357       .  S
F929       C2200   1.357       .  S
C933        C934   1.406       .  A
C933        C938   1.405       .  A
C933        H940   1.083       .  S
C934        C935   1.410       .  A
C935        C936   1.384       .  A
C936        C937   1.395       .  A
C936        H941   1.084       .  S
C937        C938   1.406       .  A
C938        F939   1.357       .  S
C943        C944   1.407       .  A
C943        H950   1.083       .  S
C944        C945   1.408       .  A
C945        F952   1.358       .  S
C946        C947   1.406       .  A
C946        H951   1.083       .  S
C947        C948   1.409       .  A
C948        F949   1.357       .  S
C953        C954   1.410       .  A
C953        C958   1.401       .  A
C953        H960   1.083       .  S
C954        C955   1.408       .  A
C955        C956   1.395       .  A
C955        F962   1.358       .  S
C956        C957   1.401       .  A
C956        H961   1.084       .  S
C957        C958   1.400       .  A
C958        F959   1.357       .  S
C963        C964   1.407       .  A
C963        C968   1.401       .  A
C963        H970   1.084       .  S
C964        C965   1.403       .  A
C965        C966   1.399       .  A
C965        F972   1.357       .  S
C966        C967   1.410       .  A
C966        H971   1.084       .  S
C967        C968   1.406       .  A
C968        F969   1.357       .  S
C973        C974   1.410       .  A
C973        C978   1.396       .  A
C973        H980   1.083       .  S
C974       C2088   1.489   1_455  S
C974        C975   1.410       .  A
C975        C976   1.403       .  A
C975        F982   1.357       .  S
C976        C977   1.404       .  A
C976        H981   1.084       .  S
C977        C978   1.400       .  A
C978        F979   1.358       .  S
C983        C984   1.401       .  A
C983        C988   1.398       .  A
C983        H990   1.084       .  S
C984        C985   1.413       .  A
C985        C986   1.403       .  A
C985        F992   1.358       .  S
C986        C987   1.400       .  A
C986        H991   1.083       .  S
C987        C988   1.409       .  A
C988        F989   1.358       .  S
C993        C994   1.407       .  A
C993        C998   1.408       .  A
C993       H1000   1.083       .  S
C994        C995   1.411       .  A
C995        C996   1.386       .  A
C995       F1002   1.359       .  S
C996        C997   1.394       .  A
C996       H1001   1.084   1_565  S
C997        C998   1.407       .  A
C998        F999   1.357       .  S
C1003      C1004   1.409       .  A
C1003      C1008   1.390       .  A
C1003      H1010   1.084       .  S
C1004      C1005   1.409       .  A
C1005      C1006   1.407       .  A
C1005      F1012   1.357       .  S
C1006      C1007   1.406       .  A
C1006      H1011   1.084       .  S
C1007      C1008   1.399       .  A
C1008      F1009   1.358       .  S
C1013      C1014   1.401       .  A
C1013      C1018   1.397       .  A
C1013      H1020   1.084       .  S
C1014      C1015   1.410       .  A
C1015      C1016   1.402       .  A
C1015      F1022   1.357       .  S
C1016      C1017   1.401       .  A
C1016      H1021   1.083       .  S
C1017      C1018   1.407       .  A
C1018      F1019   1.358       .  S
C1023      C1024   1.407       .  A
C1023      C1028   1.403       .  A
C1023      H1030   1.083       .  S
C1024      C1025   1.414       .  A
C1025      C1026   1.395       .  A
C1026      C1027   1.398       .  A
C1026      H1031   1.084       .  S
C1027      C1028   1.405       .  A
C1028      F1029   1.357       .  S
C1033      C1034   1.407       .  A
C1033      C1038   1.406       .  A
C1033      H1040   1.084       .  S
C1034      C1035   1.400       .  A
C1035      C1036   1.397       .  A
C1035      F1042   1.358       .  S
C1036      C1037   1.412       .  A
C1036      H1041   1.083       .  S
C1037      C1038   1.409       .  A
C1038      F1039   1.357       .  S
C1043      C1044   1.403       .  A
C1043      C1048   1.400       .  A
C1043      H1050   1.084       .  S
C1044      C2135   1.474       .  S
C1044      C1045   1.406       .  A
C1045      C1046   1.398       .  A
C1045      F1052   1.358       .  S
C1046      C1047   1.403       .  A
C1046      H1051   1.084       .  S
C1047      C1048   1.406       .  A
C1048      F1049   1.356       .  S
C1053      C1054   1.414       .  A
C1053      C1058   1.402   1_556  A
C1053      H1060   1.078       .  S
C1054      C1055   1.400   1_556  A
C1055      C1056   1.403       .  A
C1055      F1062   1.357       .  S
C1056      C1057   1.416       .  A
C1056      H1061   1.081       .  S
C1057      C1058   1.401       .  A
C1058      F1059   1.357   1_554  S
C1063      C1064   1.399       .  A
C1063      C1068   1.392       .  A
C1063      H1070   1.084       .  S
C1064      C1065   1.406       .  A
C1065      C1066   1.403       .  A
C1065      F1072   1.357       .  S
C1066      C1067   1.404       .  A
C1066      H1071   1.083       .  S
C1067      C1068   1.408       .  A
C1068      F1069   1.358       .  S
C1073      C1074   1.404       .  A
C1073      C1078   1.398       .  A
C1073      H1080   1.084       .  S
C1074      C1075   1.405       .  A
C1075      C1076   1.400       .  A
C1075      F1082   1.357       .  S
C1076      C1077   1.407       .  A
C1076      H1081   1.083       .  S
C1077      C1078   1.407       .  A
C1078      F1079   1.358       .  S
C1083      C1084   1.412       .  A
C1083      C2360   1.406       .  A
C1083      H1090   1.083       .  S
C1084      C1085   1.407       .  A
C1085      C2358   1.397       .  A
C1085      F1092   1.358       .  S
C1086      C2357   1.397       .  A
C1086      C1087   1.408   1_655  A
C1086      H1091   1.084       .  S
C1087      C1088   1.405       .  A
C1088      C2355   1.406   1_455  A
C1088      F1089   1.357       .  S
C1093      C1094   1.406       .  A
C1093      C1098   1.393       .  A
C1093      H1100   1.083       .  S
C1094      C1095   1.410       .  A
C1095      C1096   1.405       .  A
C1095      F1102   1.357       .  S
C1096      C1097   1.408       .  A
C1096      H1101   1.083       .  S
C1097      C1098   1.407       .  A
C1098      F1099   1.358       .  S
C1103      C1104   1.399       .  A
C1103      C1108   1.391       .  A
C1103      H1110   1.084       .  S
C1104      C1105   1.408       .  A
C1105      C1106   1.407       .  A
C1105      F1112   1.357       .  S
C1106      C1107   1.406       .  A
C1106      H1111   1.083       .  S
C1107      C1108   1.410       .  A
C1108      F1109   1.358       .  S
C1113      C1114   1.401       .  A
C1113      C1118   1.396       .  A
C1113      H1120   1.084       .  S
C1114      C1115   1.404       .  A
C1115      C1116   1.402       .  A
C1115      F1122   1.357       .  S
C1116      C1117   1.408       .  A
C1116      H1121   1.083       .  S
C1117      C1118   1.412       .  A
C1118      F1119   1.358       .  S
C1123      C1124   1.408       .  A
C1123      C1128   1.403       .  A
C1123      H1130   1.083       .  S
C1124      C1125   1.410       .  A
C1125      C1126   1.397       .  A
C1125      F1132   1.357       .  S
C1126      C1127   1.406       .  A
C1126      H1131   1.083       .  S
C1127      C1128   1.411       .  A
C1128      F1129   1.357       .  S
C1133      C1134   1.406       .  A
C1133      H1140   1.083       .  S
C1134      C1135   1.407       .  A
C1135      F1142   1.358       .  S
C1136      C1137   1.405       .  A
C1136      H1141   1.084       .  S
C1137      C1138   1.408       .  A
C1138      F1139   1.357       .  S
C1143      C1144   1.396       .  A
C1143      C1148   1.376       .  A
C1143      H1150   1.084       .  S
C1144      C1145   1.409       .  A
C1145      C1146   1.411       .  A
C1145      F1152   1.357       .  S
C1146      C1147   1.409       .  A
C1146      H1151   1.083       .  S
C1147      C1148   1.413       .  A
C1148      F2421   1.359       .  S
F1149      C2420   1.359       .  S
C1153      C1154   1.400       .  A
C1153      C1158   1.393       .  A
C1153      H1160   1.083       .  S
C1154      C1155   1.414       .  A
C1155      C1156   1.395       .  A
C1155      F1162   1.358       .  S
C1156      C1157   1.399       .  A
C1156      H1161   1.084       .  S
C1157      C1158   1.412       .  A
C1158      F1159   1.358       .  S
C1163      C1164   1.407       .  A
C1163      C1168   1.404       .  A
C1163      H1170   1.083       .  S
C1164      C1165   1.408       .  A
C1165      C1166   1.390       .  A
C1165      F1172   1.358       .  S
C1166      C1167   1.399       .  A
C1166      H1171   1.084       .  S
C1167      C1168   1.405       .  A
C1168      F1169   1.357       .  S
C1173      C1174   1.405       .  A
C1173      C1178   1.404       .  A
C1173      H1180   1.083       .  S
C1174      C1175   1.406       .  A
C1175      C1176   1.391       .  A
C1175      F1182   1.359       .  S
C1176      C1177   1.398       .  A
C1176      H1181   1.084       .  S
C1177      C1178   1.404       .  A
C1178      F1179   1.357       .  S
C1183      C1184   1.412       .  A
C1183      C1188   1.399       .  A
C1183      H1190   1.083       .  S
C1184      C1185   1.405       .  A
C1185      C1186   1.400       .  A
C1185      F1192   1.357       .  S
C1186      C1187   1.410       .  A
C1186      H1191   1.083       .  S
C1187      C1188   1.403       .  A
C1188      F1189   1.358       .  S
C1193      C1194   1.396       .  A
C1193      C1198   1.387       .  A
C1193      H1200   1.084   1_455  S
C1194      C1953   1.457   1_455  S
C1194      C1195   1.404       .  A
C1195      C1196   1.403       .  A
C1195      F1202   1.357       .  S
C1196      C1197   1.405       .  A
C1196      H1201   1.083       .  S
C1197      C1198   1.406       .  A
C1203      C1204   1.405       .  A
C1203      C1208   1.400       .  A
C1203      H1210   1.083       .  S
C1204      C1205   1.414       .  A
C1205      C1206   1.391       .  A
C1205      F1212   1.358       .  S
C1206      C1207   1.399       .  A
C1206      H1211   1.084       .  S
C1207      C1208   1.409       .  A
C1208      F1209   1.358       .  S
C1213      C1214   1.403       .  A
C1213      C1218   1.386       .  A
C1213      H1220   1.083       .  S
C1214      C1215   1.409       .  A
C1215      C1216   1.405       .  A
C1215      F1222   1.357       .  S
C1216      C1217   1.408       .  A
C1216      H1221   1.083       .  S
C1217      C1218   1.409       .  A
C1218      F1219   1.358       .  S
C1223      C1224   1.403       .  A
C1223      C1228   1.405       .  A
C1223      H1230   1.083       .  S
C1224      C1225   1.407       .  A
C1225      C1226   1.395       .  A
C1225      F1232   1.358       .  S
C1226      C1227   1.398       .  A
C1226      H1231   1.084       .  S
C1227      C1228   1.407       .  A
C1228      F1229   1.357       .  S
C1233      C1234   1.400       .  A
C1233      C1238   1.392       .  A
C1233      H1240   1.084       .  S
C1234      C1235   1.407       .  A
C1235      C1236   1.406       .  A
C1235      F1242   1.357       .  S
C1236      C1237   1.409       .  A
C1236      H1241   1.083       .  S
C1237      C1238   1.413       .  A
C1243      C1244   1.405       .  A
C1243      C1248   1.388       .  A
C1243      H1250   1.084       .  S
C1244      C1245   1.408       .  A
C1245      C1246   1.410       .  A
C1246      C1247   1.407       .  A
C1246      H1251   1.083       .  S
C1247      C1248   1.401       .  A
C1248      F1249   1.359       .  S
C1253      C1254   1.402       .  A
C1253      C1258   1.406       .  A
C1253      H1260   1.083       .  S
C1254      C1255   1.404       .  A
C1255      C1256   1.385       .  A
C1255      F1262   1.359       .  S
C1256      C1257   1.402       .  A
C1256      H1261   1.083       .  S
C1257      C1996   1.478       .  S
C1257      C1258   1.413       .  A
C1258      F1259   1.357       .  S
C1263      C1264   1.406       .  A
C1263      C1268   1.402       .  A
C1263      H1270   1.084       .  S
C1264      C1265   1.408       .  A
C1265      C1266   1.406       .  A
C1265      F1272   1.357       .  S
C1266      C1267   1.406       .  A
C1266      H1271   1.084       .  S
C1267      C1268   1.405       .  A
C1268      F1269   1.358       .  S
Zn1273     O1277   1.974       .  S
Zn1273     O1278   2.092       .  S
Zn1273     O1282   2.059       .  S
Zn1273     O1289   2.070       .  S
Zn1274     O1277   1.961       .  S
Zn1274     O1279   2.050       .  S
Zn1274     O1281   1.983       .  S
Zn1274     O1285   2.053       .  S
Zn1275     O1277   1.887       .  S
Zn1275     O1280   1.976       .  S
Zn1275     O1283   1.954       .  S
Zn1275     O1286   1.970       .  S
Zn1276     O1277   1.913       .  S
Zn1276     O1284   2.038       .  S
Zn1276     O1287   1.988       .  S
Zn1276     O1288   1.976       .  S
O1278      C1290   1.284       .  A
O1279      C1291   1.277       .  A
O1280      C1292   1.269       .  A
O1281      C1290   1.270       .  A
O1282      C1292   1.277       .  A
O1283      C1291   1.268       .  A
O1284      C1293   1.274       .  A
O1285      C1294   1.277       .  A
O1286      C1293   1.270       .  A
O1287      C1294   1.271       .  A
O1288      C1295   1.272       .  A
O1289      C1295   1.283       .  A
C1290      C1903   1.478       .  S
C1291      C1890   1.466       .  S
C1292      C2509   1.489       .  S
C1293      C1850   1.480       .  S
C1294      C1860   1.474       .  S
C1295      C1883   1.471       .  S
Zn1296     O1300   1.970       .  S
Zn1296     O1301   2.060       .  S
Zn1296     O1305   2.049       .  S
Zn1296     O1312   2.041       .  S
Zn1297     O1300   1.912       .  S
Zn1297     O1302   2.017       .  S
Zn1297     O1304   1.963       .  S
Zn1297     O1308   2.003       .  S
Zn1298     O1300   1.920       .  S
Zn1298     O1303   1.968       .  S
Zn1298     O1306   2.052       .  S
Zn1298     O1309   2.067       .  S
Zn1299     O1300   1.919       .  S
Zn1299     O1307   1.979       .  S
Zn1299     O1310   1.994       .  S
Zn1299     O1311   1.985       .  S
O1301      C1313   1.279       .  A
O1302      C1314   1.272       .  A
O1303      C1315   1.270       .  A
O1304      C1313   1.270       .  A
O1305      C1315   1.279       .  A
O1306      C1314   1.278       .  A
O1307      C1316   1.272       .  A
O1308      C1317   1.273       .  A
O1309      C1316   1.283       .  A
O1310      C1317   1.268       .  A
O1311      C1318   1.271       .  A
O1312      C1318   1.276       .  A
C1313      C1810   1.468       .  S
C1314      C1900   1.485       .  S
C1315      C1840   1.483       .  S
C1316      C1820   1.489       .  S
C1318      C1800   1.477       .  S
Zn1319     O1323   1.939       .  S
Zn1319     O1324   1.997       .  S
Zn1319     O1328   2.036       .  S
Zn1319     O1335   2.017       .  S
Zn1320     O1323   1.920       .  S
Zn1320     O1325   2.052       .  S
Zn1320     O1327   2.026       .  S
Zn1320     O1331   1.958       .  S
Zn1321     O1323   1.871       .  S
Zn1321     O1326   1.959       .  S
Zn1321     O1329   1.986       .  S
Zn1321     O1968   1.947       .  S
Zn1322     O1323   1.951       .  S
Zn1322     O1966   2.054   1_545  S
Zn1322     O1333   2.044       .  S
Zn1322     O1334   2.039       .  S
O1324      C1336   1.275       .  A
O1325      C1337   1.275       .  A
O1326      C1338   1.270       .  A
O1327      C1336   1.280       .  A
O1328      C1338   1.272       .  A
O1329      C1337   1.268       .  A
O1330     Zn1958   2.054       .  S
O1330      C1339   1.278       .  A
O1331      C1340   1.269       .  A
O1332     Zn1957   1.947       .  S
O1332      C1339   1.268       .  A
O1333      C1340   1.279       .  A
O1334      C1341   1.278       .  A
O1335      C1341   1.276       .  A
C1336      C1843   1.474       .  S
C1337      C1770   1.481       .  S
C1338      C1780   1.471       .  S
C1339      C1833   1.465       .  S
C1340      C1793   1.475       .  S
C1341      C1760   1.490       .  S
Zn1342     O1346   1.934       .  S
Zn1342     O1347   2.062       .  S
Zn1342     O1351   2.071       .  S
Zn1342     O1358   1.966       .  S
Zn1343     O1346   1.892       .  S
Zn1343     O1348   1.982       .  S
Zn1343     O1350   1.979       .  S
Zn1343     O1990   1.958       .  S
Zn1344     O1346   1.921       .  S
Zn1344     O1349   1.973       .  S
Zn1344     O1352   2.022       .  S
Zn1344     O1355   1.993       .  S
Zn1345     O1346   1.974       .  S
Zn1345     O1353   2.056       .  S
Zn1345     O1992   2.078       .  S
Zn1345     O1357   2.083       .  S
O1347      C1359   1.278       .  A
O1348      C1360   1.271       .  A
O1349      C1361   1.271       .  A
O1350      C1359   1.269       .  A
O1351      C1361   1.282       .  A
O1352      C1360   1.272       .  A
O1353      C1362   1.278       .  A
O1354     Zn1979   1.958       .  S
O1354      C1363   1.269   1_565  A
O1355      C1362   1.273       .  A
O1356     Zn1981   2.078   1_545  S
O1356      C1363   1.281       .  A
O1357      C1364   1.282       .  A
O1358      C1364   1.270       .  A
C1359      C1773   1.481       .  S
C1361      C1743   1.481       .  S
C1362      C1730   1.488       .  S
C1363      C1750   1.467       .  S
C1364      C1880   1.480       .  S
Zn1365     O1369   1.950       .  S
Zn1365     O1374   1.968       .  S
Zn1365     O1381   2.046       .  S
Zn1366     O1369   1.910       .  S
Zn1366     O1371   2.002       .  S
Zn1366     O1377   2.004       .  S
Zn1367     O1369   1.964       .  S
Zn1367     O1372   2.088       .  S
Zn1367     O1375   2.044       .  S
Zn1367     O1378   2.052       .  S
Zn1368     O1369   1.922       .  S
Zn1368     O1376   1.996       .  S
Zn1368     O1379   2.031       .  S
Zn1368     O1380   1.995       .  S
O1370      C1382   1.279       .  A
O1371      C1383   1.273       .  A
O1372      C1384   1.283       .  A
O1373      C1382   1.272   1_455  A
O1374      C1384   1.269       .  A
O1375      C1383   1.278       .  A
O1376      C1385   1.273       .  A
O1377      C1386   1.271       .  A
O1378      C1385   1.279       .  A
O1379      C1386   1.273       .  A
O1380      C1387   1.273       .  A
O1381      C1387   1.278       .  A
C1382      C1870   1.477       .  S
C1383      C1753   1.488       .  S
C1384      C1723   1.487       .  S
C1385      C1863   1.467       .  S
C1386      C1710   1.476       .  S
C1387      C1740   1.474       .  S
Zn1388     O1392   1.960       .  S
Zn1388     O1393   2.048       .  S
Zn1388     O1404   2.068       .  S
Zn1389     O1392   1.909       .  S
Zn1389     O1394   2.004       .  S
Zn1389     O1396   1.980       .  S
Zn1389     O1400   1.968       .  S
Zn1390     O1392   1.885       .  S
Zn1390     O1398   2.013       .  S
Zn1390     O1401   2.006       .  S
Zn1391     O1392   1.911       .  S
Zn1391     O1399   2.046       .  S
Zn1391     O1402   2.041       .  S
Zn1391     O1403   1.985       .  S
O1393      C1405   1.277       .  A
O1394      C1406   1.268       .  A
O1395      C1407   1.267       .  A
O1396      C1405   1.271       .  A
O1397      C1407   1.282       .  A
O1398      C1406   1.272       .  A
O1399      C1408   1.278       .  A
O1400      C1409   1.272       .  A
O1401      C1408   1.271       .  A
O1402      C1409   1.282       .  A
O1403      C1410   1.273       .  A
O1404      C1410   1.283       .  A
C1405      C1703   1.474       .  S
C1406      C2449   1.462   1_545  S
C1407      C1783   1.482       .  S
C1408      C1720   1.491       .  S
C1409      C1790   1.478       .  S
C1410      C1823   1.484       .  S
Zn1411     O1415   1.906       .  S
Zn1411     O1416   1.973       .  S
Zn1411     O1420   1.993       .  S
Zn1411     O1427   1.982       .  S
Zn1412     O1415   1.920       .  S
Zn1412     O1417   1.994       .  S
Zn1412     O1419   2.034       .  S
Zn1412     O1423   1.986       .  S
Zn1413     O1415   1.945       .  S
Zn1413     O1418   2.038       .  S
Zn1413     O1421   2.048       .  S
Zn1413     O1424   1.965       .  S
Zn1414     O1415   1.975       .  S
Zn1414     O1422   2.103       .  S
Zn1414     O1425   2.084       .  S
Zn1414     O1426   2.057       .  S
O1416      C1428   1.269       .  A
O1417      C1429   1.272       .  A
O1418      C1430   1.276       .  A
O1419      C1428   1.274       .  A
O1420      C1430   1.272       .  A
O1421      C1429   1.277       .  A
O1422      C1431   1.286       .  A
O1423      C1432   1.273       .  A
O1424      C1431   1.269       .  A
O1425      C1432   1.284       .  A
O1426      C1433   1.279       .  A
O1427      C1433   1.270       .  A
C1428      C1853   1.481       .  S
C1429      C1653   1.472       .  S
C1430      C1683   1.473       .  S
C1431      C1690   1.487       .  S
C1432      C1673   1.493       .  S
C1433      C2296   1.489       .  S
Zn1434     O1438   1.891       .  S
Zn1434     O1439   2.031       .  S
Zn1434     O1443   1.970       .  S
Zn1434     O1450   1.978       .  S
Zn1435     O1438   1.894       .  S
Zn1435     O1440   1.988       .  S
Zn1435     O1442   1.989       .  S
Zn1435     O1446   1.961       .  S
Zn1436     O1438   1.970       .  S
Zn1436     O1441   2.076       .  S
Zn1436     O1444   2.056       .  S
Zn1436     O1447   2.098       .  S
Zn1437     O1438   1.949       .  S
Zn1437     O1445   1.968       .  S
Zn1437     O1448   2.052       .  S
Zn1437     O1449   2.072       .  S
O1439      C1451   1.273       .  A
O1440      C1452   1.271       .  A
O1441      C1453   1.283       .  A
O1442      C1451   1.270       .  A
O1443      C1453   1.273       .  A
O1444      C1452   1.278       .  A
O1445      C1454   1.269       .  A
O1446      C1455   1.271       .  A
O1447      C1454   1.286       .  A
O1448      C1455   1.279       .  A
O1449      C1456   1.280       .  A
O1450      C1456   1.270       .  A
C1451      C1803   1.467       .  S
C1453      C1640   1.486       .  S
C1454      C1693   1.490       .  S
C1455      C1630   1.478       .  S
C1456      C1623   1.475       .  S
Zn1457     O1461   1.963       .  S
Zn1457     O1462   2.042       .  S
Zn1457     O1466   2.066       .  S
Zn1457     O2109   2.069   1_545  S
Zn1458     O1461   1.933       .  S
Zn1458     O1463   1.997       .  S
Zn1458     O1465   2.012       .  S
Zn1458     O1469   2.015       .  S
Zn1459     O1461   1.941       .  S
Zn1459     O1464   1.984       .  S
Zn1459     O1467   2.056       .  S
Zn1459     O1470   2.051       .  S
Zn1460     O1461   1.916       .  S
Zn1460     O1468   1.992       .  S
Zn1460     O1471   2.011       .  S
Zn1460     O2108   1.974       .  S
O1462      C1474   1.277       .  A
O1463      C1475   1.274       .  A
O1464      C1476   1.271       .  A
O1465      C1474   1.275       .  A
O1466      C1476   1.281       .  A
O1467      C1475   1.282       .  A
O1468      C1477   1.270       .  A
O1469      C1478   1.272       .  A
O1470      C1477   1.277       .  A
O1471      C1478   1.273       .  A
O1472     Zn2096   1.974       .  S
O1472      C1479   1.270       .  A
O1473     Zn2093   2.069       .  S
O1473      C1479   1.280       .  A
C1474      C1763   1.490       .  S
C1475      C1620   1.482       .  S
C1476      C1603   1.484       .  S
C1477      C1580   1.485       .  S
C1478      C1590   1.482       .  S
C1479      C1613   1.467       .  S
Zn1480     O1484   1.928       .  S
Zn1480     O1485   2.005       .  S
Zn1480     O1489   2.022       .  S
Zn1480     O1496   1.990       .  S
Zn1481     O1484   1.961       .  S
Zn1481     O2122   2.062       .  S
Zn1481     O1488   2.037       .  S
Zn1481     O1492   2.068       .  S
Zn1482     O1484   1.903       .  S
Zn1482     O1487   2.016       .  S
Zn1482     O2126   1.944       .  S
Zn1482     O1493   1.985       .  S
Zn1483     O1484   1.930       .  S
Zn1483     O1491   2.056       .  S
Zn1483     O1494   1.992       .  S
Zn1483     O1495   2.036       .  S
O1485      C1497   1.274       .  A
O1486     Zn2117   2.062   1_545  S
O1486      C1498   1.281       .  A
O1487      C1499   1.272       .  A
O1488      C1497   1.275       .  A
O1489      C1499   1.271       .  A
O1490     Zn2118   1.944       .  S
O1490      C1498   1.270   1_565  A
O1491      C1500   1.277       .  A
O1492      C1501   1.281       .  A
O1493      C1500   1.269       .  A
O1494      C1501   1.271       .  A
O1495      C1502   1.282       .  A
O1496      C1502   1.275       .  A
C1497      C1733   1.485       .  S
C1498      C1570   1.472       .  S
C1500      C1583   1.486       .  S
C1501      C1670   1.477       .  S
C1502      C1560   1.477       .  S
Zn1503     O1507   1.936       .  S
Zn1503     O1508   2.013       .  S
Zn1503     O1512   2.005       .  S
Zn1503     O1519   1.993       .  S
Zn1504     O1507   1.962       .  S
Zn1504     O1511   2.034       .  S
Zn1504     O1515   2.055       .  S
Zn1505     O1507   1.912       .  S
Zn1505     O1510   1.993       .  S
Zn1505     O1516   2.015       .  S
Zn1506     O1507   1.923       .  S
Zn1506     O1514   2.030       .  S
Zn1506     O1517   1.962       .  S
Zn1506     O1518   2.041       .  S
O1508      C1520   1.275       .  A
O1509      C1521   1.278       .  A
O1510      C1522   1.274       .  A
O1511      C1520   1.277       .  A
O1512      C1522   1.270       .  A
O1513      C1521   1.268   1_455  A
O1514      C1523   1.276       .  A
O1515      C1524   1.279       .  A
O1516      C1523   1.272       .  A
O1517      C1524   1.269       .  A
O1518      C1525   1.279       .  A
O1519      C1525   1.272       .  A
C1520      C1713   1.480       .  S
C1521      C1663   1.465       .  S
C1522      C1573   1.460       .  S
C1523      C1553   1.491       .  S
C1524      C1563   1.483       .  S
C1525      C1650   1.475       .  S
Zn1526     O1530   1.920       .  S
Zn1526     O1531   2.003       .  S
Zn1526     O1535   1.982       .  S
Zn1526     O1542   1.983       .  S
Zn1527     O1530   1.917       .  S
Zn1527     O1532   1.993       .  S
Zn1527     O1534   2.019       .  S
Zn1527     O1538   2.007       .  S
Zn1528     O1530   1.951       .  S
Zn1528     O1536   2.039       .  S
Zn1528     O1539   1.966       .  S
Zn1529     O1530   1.970       .  S
Zn1529     O1537   2.082       .  S
Zn1529     O1540   2.053       .  S
Zn1529     O1541   2.038       .  S
O1531      C1543   1.271       .  A
O1532      C1544   1.273       .  A
O1533      C1545   1.276       .  A
O1534      C1543   1.272       .  A
O1536      C1544   1.275       .  A
O1537      C1546   1.282       .  A
O1538      C1547   1.275       .  A
O1539      C1546   1.268       .  A
O1540      C1547   1.281       .  A
O1541      C1548   1.274       .  A
O1542      C1548   1.270       .  A
C1543      C1700   1.468       .  S
C1544      C1643   1.471       .  S
C1545      C1593   1.463       .  S
C1546      C1550   1.483       .  S
C1547      C1600   1.479       .  S
C1548      C2269   1.464   1_545  S
C1549      C1550   1.404       .  A
C1549      H1556   1.083       .  S
C1550      C1551   1.409       .  A
C1551      F1558   1.358       .  S
C1552      C1553   1.405       .  A
C1552      H1557   1.083       .  S
C1553      C1554   1.414       .  A
C1554      F1555   1.357       .  S
C1559      C1560   1.409       .  A
C1559      C1564   1.400       .  A
C1559      H1566   1.083       .  S
C1560      C1561   1.402       .  A
C1561      C1562   1.392       .  A
C1561      F1568   1.358       .  S
C1562      C1563   1.410       .  A
C1562      H1567   1.083       .  S
C1563      C1564   1.406       .  A
C1569      C1570   1.406       .  A
C1569      C1574   1.405       .  A
C1569      H1576   1.083       .  S
C1570      C1571   1.410       .  A
C1571      C1572   1.384       .  A
C1571      F2214   1.359       .  S
C1572      C1573   1.395       .  A
C1572      H1577   1.084       .  S
C1573      C1574   1.406       .  A
C1574      F1575   1.357       .  S
F1578      C2207   1.359       .  S
C1579      C1580   1.407       .  A
C1579      C2220   1.405   1_544  A
C1579      H1586   1.083       .  S
C1580      C1581   1.408       .  A
C1581      C2218   1.397   1_544  A
C1581      F1588   1.358       .  S
C1582      C2217   1.397   1_556  A
C1582      C1583   1.406       .  A
C1582      H1587   1.083       .  S
C1583      C1584   1.409       .  A
C1584      C2215   1.405   1_556  A
C1584      F1585   1.357       .  S
C1589      C1590   1.410       .  A
C1589      C1594   1.401       .  A
C1589      H1596   1.083       .  S
C1590      C1591   1.408       .  A
C1591      C1592   1.395       .  A
C1591      F1598   1.358       .  S
C1592      C1593   1.401       .  A
C1592      H1597   1.084       .  S
C1593      C1594   1.400       .  A
C1594      F1595   1.357       .  S
C1599      C1600   1.407       .  A
C1599      C1604   1.401       .  A
C1599      H1606   1.084       .  S
C1600      C1601   1.403       .  A
C1601      C1602   1.399       .  A
C1601      F1608   1.357       .  S
C1602      C1603   1.410       .  A
C1602      H1607   1.084       .  S
C1603      C1604   1.406       .  A
C1604      F1605   1.357       .  S
C1609      C1610   1.410       .  A
C1609      C1614   1.396       .  A
C1609      H1616   1.083       .  S
C1610      C1611   1.410       .  A
C1611      C1612   1.403       .  A
C1611      F1618   1.357       .  S
C1612      C1613   1.404       .  A
C1612      H1617   1.084       .  S
C1613      C1614   1.400       .  A
C1614      F1615   1.358       .  S
C1619      C1620   1.401       .  A
C1619      C1624   1.398       .  A
C1619      H1626   1.084       .  S
C1620      C1621   1.413       .  A
C1621      C1622   1.403       .  A
C1621      F1628   1.358       .  S
C1622      C1623   1.400       .  A
C1622      H1627   1.083       .  S
C1623      C1624   1.409       .  A
C1624      F1625   1.358       .  S
C1629      C1630   1.407       .  A
C1629      C1634   1.408       .  A
C1629      H1636   1.083       .  S
C1630      C1631   1.411       .  A
C1631      C1632   1.386       .  A
C1631      F1638   1.359       .  S
C1632      C1633   1.394       .  A
C1632      H1637   1.084       .  S
C1633      C2184   1.464       .  S
C1633      C1634   1.407       .  A
C1634      F1635   1.357       .  S
C1639      C1640   1.409       .  A
C1639      C1644   1.390       .  A
C1639      H1646   1.084       .  S
C1640      C1641   1.409       .  A
C1641      C1642   1.407       .  A
C1641      F1648   1.357       .  S
C1642      C1643   1.406       .  A
C1642      H1647   1.084       .  S
C1643      C1644   1.399       .  A
C1644      F1645   1.358       .  S
C1649      C1650   1.401       .  A
C1649      C1654   1.397       .  A
C1649      H1656   1.084       .  S
C1650      C1651   1.410       .  A
C1651      C1652   1.402       .  A
C1651      F1658   1.357       .  S
C1652      C1653   1.401       .  A
C1652      H1657   1.083       .  S
C1653      C1654   1.407       .  A
C1654      F1655   1.358       .  S
C1659      C1660   1.407       .  A
C1659      C1664   1.403       .  A
C1659      H1666   1.083       .  S
C1660      C2069   1.489   1_545  S
C1660      C1661   1.414       .  A
C1661      C1662   1.395       .  A
C1661      F2304   1.358       .  S
C1662      C1663   1.398       .  A
C1662      H1667   1.084       .  S
C1663      C1664   1.405       .  A
C1664      F1665   1.357       .  S
F1668      C2297   1.358       .  S
C1669      C1670   1.407       .  A
C1669      C1674   1.406       .  A
C1669      H1676   1.084       .  S
C1670      C1671   1.400       .  A
C1671      C1672   1.397       .  A
C1671      F1678   1.358       .  S
C1672      C1673   1.412       .  A
C1672      H1677   1.083       .  S
C1673      C1674   1.409       .  A
C1674      F1675   1.357       .  S
C1679      C1680   1.403       .  A
C1679      C1684   1.400       .  A
C1679      H1686   1.084       .  S
C1680      C1681   1.406       .  A
C1681      C1682   1.398       .  A
C1681      F1688   1.358       .  S
C1682      C1683   1.403       .  A
C1682      H1687   1.084       .  S
C1683      C1684   1.406       .  A
C1684      F1685   1.356       .  S
C1689      C1690   1.414       .  A
C1689      C1694   1.402   1_556  A
C1689      H1696   1.078       .  S
C1690      C1691   1.400   1_556  A
C1691      C1692   1.403       .  A
C1691      F1698   1.357       .  S
C1692      C1693   1.416       .  A
C1692      H1697   1.081       .  S
C1693      C1694   1.401       .  A
C1694      F1695   1.357   1_554  S
C1699      C1700   1.399       .  A
C1699      C1704   1.392       .  A
C1699      H1706   1.084       .  S
C1700      C1701   1.406       .  A
C1701      C1702   1.403       .  A
C1701      F1708   1.357       .  S
C1702      C1703   1.404       .  A
C1702      H1707   1.083       .  S
C1703      C1704   1.408       .  A
C1704      F1705   1.358       .  S
C1709      C1710   1.404       .  A
C1709      C1714   1.398       .  A
C1709      H1716   1.084       .  S
C1710      C1711   1.405       .  A
C1711      C1712   1.400       .  A
C1711      F1718   1.357       .  S
C1712      C1713   1.407       .  A
C1712      H1717   1.083       .  S
C1713      C1714   1.407       .  A
C1714      F1715   1.358       .  S
C1719      C1720   1.412       .  A
C1719      H1726   1.083       .  S
C1720      C1721   1.408       .  A
C1721      F1728   1.358       .  S
C1722      C1723   1.408       .  A
C1722      H1727   1.084       .  S
C1723      C1724   1.405       .  A
C1724      F1725   1.357       .  S
C1729      C1730   1.406       .  A
C1729      C1734   1.393       .  A
C1729      H1736   1.083       .  S
C1730      C1731   1.410       .  A
C1731      C1732   1.405       .  A
C1731      F1738   1.357       .  S
C1732      C1733   1.408       .  A
C1732      H1737   1.083       .  S
C1733      C1734   1.407       .  A
C1734      F1735   1.358       .  S
C1739      C1740   1.399       .  A
C1739      C1744   1.391       .  A
C1739      H1746   1.084       .  S
C1740      C1741   1.408       .  A
C1741      C1742   1.407       .  A
C1741      F1748   1.357       .  S
C1742      C1743   1.406       .  A
C1742      H1747   1.083       .  S
C1743      C1744   1.410       .  A
C1744      F1745   1.358       .  S
C1749      C1750   1.401       .  A
C1749      C1754   1.396       .  A
C1749      H1756   1.084       .  S
C1750      C1751   1.404       .  A
C1751      C1752   1.402       .  A
C1751      F1758   1.357       .  S
C1752      C1753   1.408       .  A
C1752      H1757   1.083       .  S
C1753      C1754   1.412       .  A
C1754      F1755   1.358       .  S
C1759      C1760   1.408       .  A
C1759      C1764   1.403       .  A
C1759      H1766   1.083       .  S
C1760      C1761   1.410       .  A
C1761      C1762   1.397       .  A
C1761      F1768   1.357       .  S
C1762      C1763   1.406       .  A
C1762      H1767   1.083       .  S
C1763      C1764   1.411       .  A
C1764      F1765   1.357       .  S
C1769      C1770   1.406       .  A
C1769      C2410   1.405   1_545  A
C1769      H1776   1.083       .  S
C1770      C1771   1.407       .  A
C1771      C2408   1.397   1_545  A
C1771      F1778   1.358       .  S
C1772      C2407   1.397       .  A
C1772      C1773   1.405       .  A
C1772      H1777   1.084       .  S
C1773      C1774   1.408       .  A
C1774      C2405   1.405       .  A
C1774      F1775   1.357       .  S
C1779      C1780   1.396       .  A
C1779      C1784   1.376       .  A
C1779      H1786   1.084       .  S
C1780      C1781   1.409       .  A
C1781      C1782   1.411       .  A
C1781      F1788   1.357       .  S
C1782      C1783   1.409       .  A
C1782      H1787   1.083       .  S
C1783      C1784   1.413       .  A
C1789      C1790   1.400       .  A
C1789      C1794   1.393       .  A
C1789      H1796   1.083       .  S
C1790      C1791   1.414       .  A
C1791      C1792   1.395       .  A
C1791      F1798   1.358       .  S
C1792      C1793   1.399       .  A
C1792      H1797   1.084       .  S
C1793      C1794   1.412       .  A
C1794      F1795   1.358       .  S
C1799      C1800   1.407       .  A
C1799      C1804   1.404       .  A
C1799      H1806   1.083       .  S
C1800      C1801   1.408       .  A
C1801      C1802   1.390       .  A
C1801      F1808   1.358       .  S
C1802      C1803   1.399       .  A
C1802      H1807   1.084       .  S
C1803      C1804   1.405       .  A
C1804      F1805   1.357       .  S
C1809      C1810   1.405       .  A
C1809      C1814   1.404       .  A
C1809      H1816   1.083       .  S
C1810      C1811   1.406       .  A
C1811      C1812   1.391       .  A
C1811      F1818   1.359       .  S
C1812      C1813   1.398       .  A
C1812      H1817   1.084       .  S
C1813      C2042   1.462       .  S
C1813      C1814   1.404       .  A
C1814      F1815   1.357       .  S
C1819      C1820   1.412       .  A
C1819      C1824   1.399       .  A
C1819      H1826   1.083       .  S
C1820      C1821   1.405       .  A
C1821      C1822   1.400       .  A
C1821      F1828   1.357       .  S
C1822      C1823   1.410       .  A
C1822      H1827   1.083       .  S
C1823      C1824   1.403       .  A
C1824      F1825   1.358       .  S
C1829      C1830   1.396       .  A
C1829      C1834   1.387       .  A
C1829      H1836   1.084       .  S
C1830      C1831   1.404       .  A
C1831      C1832   1.403       .  A
C1831      F1838   1.357       .  S
C1832      C1833   1.405       .  A
C1832      H1837   1.083       .  S
C1833      C1834   1.406       .  A
C1834      F2471   1.359       .  S
F1835      C2470   1.359       .  S
C1839      C1840   1.405       .  A
C1839      C1844   1.400       .  A
C1839      H1846   1.083       .  S
C1840      C1841   1.414       .  A
C1841      C1842   1.391       .  A
C1841      F1848   1.358       .  S
C1842      C1843   1.399       .  A
C1842      H1847   1.084       .  S
C1843      C1844   1.409       .  A
C1844      F1845   1.358       .  S
C1849      C1850   1.403       .  A
C1849      C1854   1.386       .  A
C1849      H1856   1.083       .  S
C1850      C1851   1.409       .  A
C1851      C1852   1.405       .  A
C1851      F1858   1.357       .  S
C1852      C1853   1.408       .  A
C1852      H1857   1.083       .  S
C1853      C1854   1.409       .  A
C1854      F1855   1.358       .  S
C1859      C1860   1.403       .  A
C1859      C1864   1.405       .  A
C1859      H1866   1.083       .  S
C1860      C1861   1.407       .  A
C1861      C1862   1.395       .  A
C1861      F1868   1.358       .  S
C1862      C1863   1.398       .  A
C1862      H1867   1.084       .  S
C1863      C1864   1.407       .  A
C1864      F1865   1.357       .  S
C1869      C1870   1.400       .  A
C1869      C1874   1.392       .  A
C1869      H1876   1.084       .  S
C1870      C1871   1.407       .  A
C1871      C1872   1.406       .  A
C1871      F1878   1.357       .  S
C1872      C1873   1.409       .  A
C1872      H1877   1.083       .  S
C1873      C1928   1.489   1_545  S
C1873      C1874   1.413       .  A
C1874      F2511   1.358       .  S
F1875      C2510   1.358       .  S
C1879      C1880   1.405       .  A
C1879      C1884   1.388       .  A
C1879      H1886   1.084       .  S
C1880      C1881   1.408       .  A
C1881      C1882   1.410       .  A
C1881      F2524   1.357       .  S
C1882      C1883   1.407       .  A
C1882      H1887   1.083       .  S
C1883      C1884   1.401       .  A
C1884      F1885   1.359       .  S
F1888      C2517   1.357       .  S
C1889      C1890   1.402       .  A
C1889      C1894   1.406       .  A
C1889      H1896   1.083       .  S
C1890      C1891   1.404       .  A
C1891      C1892   1.385       .  A
C1891      F1898   1.359       .  S
C1892      C1893   1.402       .  A
C1892      H1897   1.083       .  S
C1893      C1894   1.413       .  A
C1894      F1895   1.357       .  S
C1899      C1900   1.406       .  A
C1899      C1904   1.402       .  A
C1899      H1906   1.084       .  S
C1900      C1901   1.408       .  A
C1901      C1902   1.406       .  A
C1901      F1908   1.357       .  S
C1902      C1903   1.406       .  A
C1902      H1907   1.084       .  S
C1903      C1904   1.405       .  A
C1904      F1905   1.358       .  S
Zn1909     O1913   1.974       .  S
Zn1909     O1914   2.092       .  S
Zn1909     O1918   2.059       .  S
Zn1909     O1925   2.070       .  S
Zn1910     O1913   1.961       .  S
Zn1910     O1915   2.050       .  S
Zn1910     O1917   1.983       .  S
Zn1910     O1921   2.053       .  S
Zn1911     O1913   1.887       .  S
Zn1911     O1916   1.976       .  S
Zn1911     O1919   1.954       .  S
Zn1911     O1922   1.970       .  S
Zn1912     O1913   1.913       .  S
Zn1912     O1920   2.038       .  S
Zn1912     O1923   1.988       .  S
Zn1912     O1924   1.976       .  S
O1914      C1926   1.284       .  A
O1915      C1927   1.277       .  A
O1916      C1928   1.269       .  A
O1917      C1926   1.270       .  A
O1918      C1928   1.277       .  A
O1919      C1927   1.268       .  A
O1920      C1929   1.274       .  A
O1921      C1930   1.277       .  A
O1922      C1929   1.270       .  A
O1923      C1930   1.271       .  A
O1924      C1931   1.272       .  A
O1925      C1931   1.283       .  A
C1926      C2539   1.478       .  S
C1927      C2526   1.466       .  S
C1929      C2486   1.480       .  S
C1930      C2496   1.474       .  S
C1931      C2519   1.471       .  S
Zn1932     O1936   1.970       .  S
Zn1932     O1937   2.060       .  S
Zn1932     O1941   2.049       .  S
Zn1932     O1948   2.041       .  S
Zn1933     O1936   1.912       .  S
Zn1933     O1938   2.017       .  S
Zn1933     O1940   1.963       .  S
Zn1933     O1944   2.003       .  S
Zn1934     O1936   1.920       .  S
Zn1934     O1939   1.968       .  S
Zn1934     O1942   2.052       .  S
Zn1934     O1945   2.067       .  S
Zn1935     O1936   1.919       .  S
Zn1935     O1943   1.979       .  S
Zn1935     O1946   1.994       .  S
Zn1935     O1947   1.985       .  S
O1937      C1949   1.279       .  A
O1938      C1950   1.272       .  A
O1939      C1951   1.270       .  A
O1940      C1949   1.270       .  A
O1941      C1951   1.279       .  A
O1942      C1950   1.278       .  A
O1943      C1952   1.272       .  A
O1944      C1953   1.273       .  A
O1945      C1952   1.283       .  A
O1946      C1953   1.268       .  A
O1947      C1954   1.271       .  A
O1948      C1954   1.276       .  A
C1949      C2446   1.468       .  S
C1950      C2536   1.485       .  S
C1951      C2476   1.483       .  S
C1952      C2456   1.489       .  S
C1954      C2436   1.477       .  S
Zn1955     O1959   1.939       .  S
Zn1955     O1960   1.997       .  S
Zn1955     O1964   2.036       .  S
Zn1955     O1971   2.017       .  S
Zn1956     O1959   1.920       .  S
Zn1956     O1961   2.051       .  S
Zn1956     O1963   2.026       .  S
Zn1956     O1967   1.958       .  S
Zn1957     O1959   1.871       .  S
Zn1957     O1962   1.959       .  S
Zn1957     O1965   1.986       .  S
Zn1958     O1959   1.951       .  S
Zn1958     O1969   2.044       .  S
Zn1958     O1970   2.039       .  S
O1960      C1972   1.275       .  A
O1961      C1973   1.275       .  A
O1962      C1974   1.270       .  A
O1963      C1972   1.280       .  A
O1964      C1974   1.272       .  A
O1965      C1973   1.268       .  A
O1966      C1975   1.278       .  A
O1967      C1976   1.269       .  A
O1968      C1975   1.268   1_545  A
O1969      C1976   1.279       .  A
O1970      C1977   1.278       .  A
O1971      C1977   1.276       .  A
C1972      C2479   1.474       .  S
C1973      C2406   1.481       .  S
C1974      C2416   1.471       .  S
C1975      C2469   1.465       .  S
C1976      C2429   1.475       .  S
C1977      C2396   1.490       .  S
Zn1978     O1982   1.934       .  S
Zn1978     O1983   2.062       .  S
Zn1978     O1987   2.071       .  S
Zn1978     O1994   1.966       .  S
Zn1979     O1982   1.892       .  S
Zn1979     O1984   1.982       .  S
Zn1979     O1986   1.979       .  S
Zn1980     O1982   1.921       .  S
Zn1980     O1985   1.973       .  S
Zn1980     O1988   2.022       .  S
Zn1980     O1991   1.993       .  S
Zn1981     O1982   1.974       .  S
Zn1981     O1989   2.056       .  S
Zn1981     O1993   2.083       .  S
O1983      C1995   1.278       .  A
O1984      C1996   1.271       .  A
O1985      C1997   1.271       .  A
O1986      C1995   1.269       .  A
O1987      C1997   1.282       .  A
O1988      C1996   1.272       .  A
O1989      C1998   1.278       .  A
O1990      C1999   1.269       .  A
O1991      C1998   1.273       .  A
O1992      C1999   1.281       .  A
O1993      C2000   1.282       .  A
O1994      C2000   1.270       .  A
C1995      C2409   1.481       .  S
C1997      C2379   1.481       .  S
C1998      C2366   1.488       .  S
C1999      C2386   1.467       .  S
C2000      C2516   1.480       .  S
Zn2001     O2005   1.950       .  S
Zn2001     O2010   1.968       .  S
Zn2001     O2017   2.046       .  S
Zn2002     O2005   1.910       .  S
Zn2002     O2007   2.002       .  S
Zn2002     O2013   2.004       .  S
Zn2003     O2005   1.964       .  S
Zn2003     O2008   2.088       .  S
Zn2003     O2011   2.044       .  S
Zn2003     O2014   2.052       .  S
Zn2004     O2005   1.922       .  S
Zn2004     O2012   1.996       .  S
Zn2004     O2015   2.031       .  S
Zn2004     O2016   1.995       .  S
O2006      C2018   1.279       .  A
O2007      C2019   1.273       .  A
O2008      C2020   1.283       .  A
O2009      C2018   1.272   1_455  A
O2010      C2020   1.269       .  A
O2011      C2019   1.278       .  A
O2012      C2021   1.273       .  A
O2013      C2022   1.271       .  A
O2014      C2021   1.279       .  A
O2015      C2022   1.273       .  A
O2016      C2023   1.273       .  A
O2017      C2023   1.278       .  A
C2018      C2506   1.477       .  S
C2019      C2389   1.488       .  S
C2020      C2359   1.487       .  S
C2021      C2499   1.467       .  S
C2022      C2346   1.476       .  S
C2023      C2376   1.474       .  S
Zn2024     O2028   1.960       .  S
Zn2024     O2029   2.048       .  S
Zn2024     O2040   2.068       .  S
Zn2025     O2028   1.909       .  S
Zn2025     O2030   2.004       .  S
Zn2025     O2032   1.980       .  S
Zn2025     O2036   1.968       .  S
Zn2026     O2028   1.885       .  S
Zn2026     O2034   2.013       .  S
Zn2026     O2037   2.006       .  S
Zn2027     O2028   1.911       .  S
Zn2027     O2035   2.046       .  S
Zn2027     O2038   2.041       .  S
Zn2027     O2039   1.985       .  S
O2029      C2041   1.277       .  A
O2030      C2042   1.268       .  A
O2031      C2043   1.267       .  A
O2032      C2041   1.271       .  A
O2033      C2043   1.282       .  A
O2034      C2042   1.272       .  A
O2035      C2044   1.278       .  A
O2036      C2045   1.272       .  A
O2037      C2044   1.271       .  A
O2038      C2045   1.282       .  A
O2039      C2046   1.273       .  A
O2040      C2046   1.283       .  A
C2041      C2339   1.474       .  S
C2043      C2419   1.482       .  S
C2044      C2356   1.491       .  S
C2045      C2426   1.478       .  S
C2046      C2459   1.484       .  S
Zn2047     O2051   1.906       .  S
Zn2047     O2052   1.973       .  S
Zn2047     O2056   1.993       .  S
Zn2047     O2063   1.982       .  S
Zn2048     O2051   1.920       .  S
Zn2048     O2053   1.994       .  S
Zn2048     O2055   2.034       .  S
Zn2048     O2059   1.986       .  S
Zn2049     O2051   1.945       .  S
Zn2049     O2054   2.038       .  S
Zn2049     O2057   2.048       .  S
Zn2049     O2060   1.965       .  S
Zn2050     O2051   1.975       .  S
Zn2050     O2058   2.103       .  S
Zn2050     O2061   2.084       .  S
Zn2050     O2062   2.056       .  S
O2052      C2064   1.269       .  A
O2053      C2065   1.272       .  A
O2054      C2066   1.277       .  A
O2055      C2064   1.274       .  A
O2056      C2066   1.272       .  A
O2057      C2065   1.277       .  A
O2058      C2067   1.286       .  A
O2059      C2068   1.273       .  A
O2060      C2067   1.269       .  A
O2061      C2068   1.284       .  A
O2062      C2069   1.279       .  A
O2063      C2069   1.270       .  A
C2064      C2489   1.481       .  S
C2065      C2289   1.472       .  S
C2066      C2319   1.474       .  S
C2067      C2326   1.487       .  S
C2068      C2309   1.493       .  S
Zn2070     O2074   1.891       .  S
Zn2070     O2075   2.031       .  S
Zn2070     O2079   1.970       .  S
Zn2070     O2086   1.978       .  S
Zn2071     O2074   1.894       .  S
Zn2071     O2076   1.988       .  S
Zn2071     O2078   1.989       .  S
Zn2071     O2082   1.961       .  S
Zn2072     O2074   1.970       .  S
Zn2072     O2077   2.076       .  S
Zn2072     O2080   2.056       .  S
Zn2072     O2083   2.098       .  S
Zn2073     O2074   1.949       .  S
Zn2073     O2081   1.968       .  S
Zn2073     O2084   2.052       .  S
Zn2073     O2085   2.072       .  S
O2075      C2087   1.273       .  A
O2076      C2088   1.271       .  A
O2077      C2089   1.283       .  A
O2078      C2087   1.270       .  A
O2079      C2089   1.273       .  A
O2080      C2088   1.278       .  A
O2081      C2090   1.269       .  A
O2082      C2091   1.271       .  A
O2083      C2090   1.286       .  A
O2084      C2091   1.279       .  A
O2085      C2092   1.280       .  A
O2086      C2092   1.270       .  A
C2087      C2439   1.467       .  S
C2089      C2276   1.486       .  S
C2090      C2329   1.490       .  S
C2091      C2266   1.478       .  S
C2092      C2259   1.475       .  S
Zn2093     O2097   1.963       .  S
Zn2093     O2098   2.042       .  S
Zn2093     O2102   2.066       .  S
Zn2094     O2097   1.933       .  S
Zn2094     O2099   1.997       .  S
Zn2094     O2101   2.012       .  S
Zn2094     O2105   2.015       .  S
Zn2095     O2097   1.941       .  S
Zn2095     O2100   1.984       .  S
Zn2095     O2103   2.056       .  S
Zn2095     O2106   2.051       .  S
Zn2096     O2097   1.916       .  S
Zn2096     O2104   1.992       .  S
Zn2096     O2107   2.011       .  S
O2098      C2110   1.277       .  A
O2099      C2111   1.274       .  A
O2100      C2112   1.271       .  A
O2101      C2110   1.275       .  A
O2102      C2112   1.281       .  A
O2103      C2111   1.282       .  A
O2104      C2113   1.270       .  A
O2105      C2114   1.272       .  A
O2106      C2113   1.277       .  A
O2107      C2114   1.273       .  A
O2108      C2115   1.270   1_545  A
O2109      C2115   1.280       .  A
C2110      C2399   1.490       .  S
C2111      C2256   1.482       .  S
C2112      C2239   1.484       .  S
C2113      C2216   1.485       .  S
C2114      C2226   1.482       .  S
C2115      C2249   1.467       .  S
Zn2116     O2120   1.928       .  S
Zn2116     O2121   2.005       .  S
Zn2116     O2125   2.022       .  S
Zn2116     O2132   1.990       .  S
Zn2117     O2120   1.961       .  S
Zn2117     O2124   2.037       .  S
Zn2117     O2128   2.069       .  S
Zn2118     O2120   1.903       .  S
Zn2118     O2123   2.016       .  S
Zn2118     O2129   1.985       .  S
Zn2119     O2120   1.930       .  S
Zn2119     O2127   2.056       .  S
Zn2119     O2130   1.992       .  S
Zn2119     O2131   2.036       .  S
O2121      C2133   1.274       .  A
O2122      C2134   1.281       .  A
O2123      C2135   1.272       .  A
O2124      C2133   1.275       .  A
O2125      C2135   1.271       .  A
O2126      C2134   1.270       .  A
O2127      C2136   1.277       .  A
O2128      C2137   1.281       .  A
O2129      C2136   1.269       .  A
O2130      C2137   1.271       .  A
O2131      C2138   1.282       .  A
O2132      C2138   1.275       .  A
C2133      C2369   1.485       .  S
C2134      C2206   1.472       .  S
C2136      C2219   1.486       .  S
C2137      C2306   1.477       .  S
C2138      C2196   1.477       .  S
Zn2139     O2143   1.936       .  S
Zn2139     O2144   2.013       .  S
Zn2139     O2148   2.005       .  S
Zn2139     O2155   1.993       .  S
Zn2140     O2143   1.962       .  S
Zn2140     O2147   2.034       .  S
Zn2140     O2151   2.055       .  S
Zn2141     O2143   1.912       .  S
Zn2141     O2146   1.993       .  S
Zn2141     O2152   2.015       .  S
Zn2142     O2143   1.923       .  S
Zn2142     O2150   2.030       .  S
Zn2142     O2153   1.962       .  S
Zn2142     O2154   2.041       .  S
O2144      C2156   1.275       .  A
O2145      C2157   1.278       .  A
O2146      C2158   1.274       .  A
O2147      C2156   1.277       .  A
O2148      C2158   1.270       .  A
O2149      C2157   1.268   1_455  A
O2150      C2159   1.276       .  A
O2151      C2160   1.279       .  A
O2152      C2159   1.272       .  A
O2153      C2160   1.269       .  A
O2154      C2161   1.279       .  A
O2155      C2161   1.272       .  A
C2156      C2349   1.480       .  S
C2157      C2299   1.465       .  S
C2158      C2209   1.460       .  S
C2159      C2189   1.491       .  S
C2160      C2199   1.483       .  S
C2161      C2286   1.475       .  S
Zn2162     O2166   1.920       .  S
Zn2162     O2167   2.003       .  S
Zn2162     O2171   1.982       .  S
Zn2162     O2178   1.983       .  S
Zn2163     O2166   1.917       .  S
Zn2163     O2168   1.993       .  S
Zn2163     O2170   2.019       .  S
Zn2163     O2174   2.007       .  S
Zn2164     O2166   1.951       .  S
Zn2164     O2172   2.039       .  S
Zn2164     O2175   1.966       .  S
Zn2165     O2166   1.970       .  S
Zn2165     O2173   2.082       .  S
Zn2165     O2176   2.053       .  S
Zn2165     O2177   2.038       .  S
O2167      C2179   1.271       .  A
O2168      C2180   1.273       .  A
O2169      C2181   1.276       .  A
O2170      C2179   1.272       .  A
O2172      C2180   1.275       .  A
O2173      C2182   1.282       .  A
O2174      C2183   1.275       .  A
O2175      C2182   1.268       .  A
O2176      C2183   1.281       .  A
O2177      C2184   1.274       .  A
O2178      C2184   1.270       .  A
C2179      C2336   1.468       .  S
C2180      C2279   1.471       .  S
C2181      C2229   1.463       .  S
C2182      C2186   1.483       .  S
C2183      C2236   1.479       .  S
C2185      C2186   1.404       .  A
C2185      H2192   1.083       .  S
C2186      C2187   1.409       .  A
C2187      F2194   1.358       .  S
C2188      C2189   1.405       .  A
C2188      H2193   1.083       .  S
C2189      C2190   1.414       .  A
C2190      F2191   1.357       .  S
C2195      C2196   1.409       .  A
C2195      C2200   1.400       .  A
C2195      H2202   1.083       .  S
C2196      C2197   1.402       .  A
C2197      C2198   1.392       .  A
C2197      F2204   1.358       .  S
C2198      C2199   1.410       .  A
C2198      H2203   1.083       .  S
C2199      C2200   1.406       .  A
C2205      C2206   1.406       .  A
C2205      C2210   1.405       .  A
C2205      H2212   1.083       .  S
C2206      C2207   1.410       .  A
C2207      C2208   1.384       .  A
C2208      C2209   1.395       .  A
C2208      H2213   1.084       .  S
C2209      C2210   1.406       .  A
C2210      F2211   1.357       .  S
C2215      C2216   1.407       .  A
C2215      H2222   1.083       .  S
C2216      C2217   1.408       .  A
C2217      F2224   1.358       .  S
C2218      C2219   1.406       .  A
C2218      H2223   1.083       .  S
C2219      C2220   1.409       .  A
C2220      F2221   1.357       .  S
C2225      C2226   1.410       .  A
C2225      C2230   1.401       .  A
C2225      H2232   1.083       .  S
C2226      C2227   1.408       .  A
C2227      C2228   1.395       .  A
C2227      F2234   1.358       .  S
C2228      C2229   1.401       .  A
C2228      H2233   1.084       .  S
C2229      C2230   1.400       .  A
C2230      F2231   1.357       .  S
C2235      C2236   1.407       .  A
C2235      C2240   1.401       .  A
C2235      H2242   1.084       .  S
C2236      C2237   1.403       .  A
C2237      C2238   1.399       .  A
C2237      F2244   1.357       .  S
C2238      C2239   1.410       .  A
C2238      H2243   1.084       .  S
C2239      C2240   1.406       .  A
C2240      F2241   1.357       .  S
C2245      C2246   1.410       .  A
C2245      C2250   1.396       .  A
C2245      H2252   1.083       .  S
C2246      C2247   1.410       .  A
C2247      C2248   1.403       .  A
C2247      F2254   1.357       .  S
C2248      C2249   1.404       .  A
C2248      H2253   1.084       .  S
C2249      C2250   1.400       .  A
C2250      F2251   1.358       .  S
C2255      C2256   1.401       .  A
C2255      C2260   1.398       .  A
C2255      H2262   1.084       .  S
C2256      C2257   1.413       .  A
C2257      C2258   1.403       .  A
C2257      F2264   1.358       .  S
C2258      C2259   1.400       .  A
C2258      H2263   1.083       .  S
C2259      C2260   1.409       .  A
C2260      F2261   1.358       .  S
C2265      C2266   1.407       .  A
C2265      C2270   1.408       .  A
C2265      H2272   1.083       .  S
C2266      C2267   1.411       .  A
C2267      C2268   1.386       .  A
C2267      F2274   1.359       .  S
C2268      C2269   1.394       .  A
C2268      H2273   1.084   1_565  S
C2269      C2270   1.407       .  A
C2270      F2271   1.357       .  S
C2275      C2276   1.409       .  A
C2275      C2280   1.390       .  A
C2275      H2282   1.084       .  S
C2276      C2277   1.409       .  A
C2277      C2278   1.407       .  A
C2277      F2284   1.357       .  S
C2278      C2279   1.406       .  A
C2278      H2283   1.084       .  S
C2279      C2280   1.399       .  A
C2280      F2281   1.358       .  S
C2285      C2286   1.401       .  A
C2285      C2290   1.397       .  A
C2285      H2292   1.084       .  S
C2286      C2287   1.410       .  A
C2287      C2288   1.402       .  A
C2287      F2294   1.357       .  S
C2288      C2289   1.401       .  A
C2288      H2293   1.083       .  S
C2289      C2290   1.407       .  A
C2290      F2291   1.358       .  S
C2295      C2296   1.407       .  A
C2295      C2300   1.403       .  A
C2295      H2302   1.083       .  S
C2296      C2297   1.414       .  A
C2297      C2298   1.395       .  A
C2298      C2299   1.398       .  A
C2298      H2303   1.084       .  S
C2299      C2300   1.405       .  A
C2300      F2301   1.357       .  S
C2305      C2306   1.407       .  A
C2305      C2310   1.406       .  A
C2305      H2312   1.084       .  S
C2306      C2307   1.400       .  A
C2307      C2308   1.397       .  A
C2307      F2314   1.358       .  S
C2308      C2309   1.412       .  A
C2308      H2313   1.083       .  S
C2309      C2310   1.409       .  A
C2310      F2311   1.357       .  S
C2315      C2316   1.403       .  A
C2315      C2320   1.400       .  A
C2315      H2322   1.084       .  S
C2316      C2317   1.406       .  A
C2317      C2318   1.398       .  A
C2317      F2324   1.358       .  S
C2318      C2319   1.403       .  A
C2318      H2323   1.084       .  S
C2319      C2320   1.406       .  A
C2320      F2321   1.356       .  S
C2325      C2326   1.414       .  A
C2325      C2330   1.402   1_556  A
C2325      H2332   1.078       .  S
C2326      C2327   1.400   1_556  A
C2327      C2328   1.403       .  A
C2327      F2334   1.357       .  S
C2328      C2329   1.416       .  A
C2328      H2333   1.081       .  S
C2329      C2330   1.401       .  A
C2330      F2331   1.357   1_554  S
C2335      C2336   1.399       .  A
C2335      C2340   1.392       .  A
C2335      H2342   1.084       .  S
C2336      C2337   1.406       .  A
C2337      C2338   1.403       .  A
C2337      F2344   1.357       .  S
C2338      C2339   1.404       .  A
C2338      H2343   1.083       .  S
C2339      C2340   1.408       .  A
C2340      F2341   1.358       .  S
C2345      C2346   1.404       .  A
C2345      C2350   1.398       .  A
C2345      H2352   1.084       .  S
C2346      C2347   1.405       .  A
C2347      C2348   1.400       .  A
C2347      F2354   1.357       .  S
C2348      C2349   1.407       .  A
C2348      H2353   1.083       .  S
C2349      C2350   1.407       .  A
C2350      F2351   1.358       .  S
C2355      C2356   1.412       .  A
C2355      H2362   1.083       .  S
C2356      C2357   1.407       .  A
C2357      F2364   1.358       .  S
C2358      C2359   1.408       .  A
C2358      H2363   1.084       .  S
C2359      C2360   1.405       .  A
C2360      F2361   1.357       .  S
C2365      C2366   1.406       .  A
C2365      C2370   1.393       .  A
C2365      H2372   1.083       .  S
C2366      C2367   1.410       .  A
C2367      C2368   1.405       .  A
C2367      F2374   1.357       .  S
C2368      C2369   1.408       .  A
C2368      H2373   1.083       .  S
C2369      C2370   1.407       .  A
C2370      F2371   1.358       .  S
C2375      C2376   1.399       .  A
C2375      C2380   1.391       .  A
C2375      H2382   1.084       .  S
C2376      C2377   1.408       .  A
C2377      C2378   1.407       .  A
C2377      F2384   1.357       .  S
C2378      C2379   1.406       .  A
C2378      H2383   1.083       .  S
C2379      C2380   1.410       .  A
C2380      F2381   1.358       .  S
C2385      C2386   1.401       .  A
C2385      C2390   1.396       .  A
C2385      H2392   1.084       .  S
C2386      C2387   1.404       .  A
C2387      C2388   1.402       .  A
C2387      F2394   1.357       .  S
C2388      C2389   1.408       .  A
C2388      H2393   1.083       .  S
C2389      C2390   1.412       .  A
C2390      F2391   1.358       .  S
C2395      C2396   1.408       .  A
C2395      C2400   1.403       .  A
C2395      H2402   1.083       .  S
C2396      C2397   1.410       .  A
C2397      C2398   1.397       .  A
C2397      F2404   1.357       .  S
C2398      C2399   1.406       .  A
C2398      H2403   1.083       .  S
C2399      C2400   1.411       .  A
C2400      F2401   1.357       .  S
C2405      C2406   1.406       .  A
C2405      H2412   1.083       .  S
C2406      C2407   1.407       .  A
C2407      F2414   1.358       .  S
C2408      C2409   1.405       .  A
C2408      H2413   1.084       .  S
C2409      C2410   1.408       .  A
C2410      F2411   1.357       .  S
C2415      C2416   1.396       .  A
C2415      C2420   1.376       .  A
C2415      H2422   1.084       .  S
C2416      C2417   1.409       .  A
C2417      C2418   1.411       .  A
C2417      F2424   1.357       .  S
C2418      C2419   1.409       .  A
C2418      H2423   1.083       .  S
C2419      C2420   1.413       .  A
C2425      C2426   1.400       .  A
C2425      C2430   1.393       .  A
C2425      H2432   1.083       .  S
C2426      C2427   1.414       .  A
C2427      C2428   1.395       .  A
C2427      F2434   1.358       .  S
C2428      C2429   1.399       .  A
C2428      H2433   1.084       .  S
C2429      C2430   1.412       .  A
C2430      F2431   1.358       .  S
C2435      C2436   1.407       .  A
C2435      C2440   1.404       .  A
C2435      H2442   1.083       .  S
C2436      C2437   1.408       .  A
C2437      C2438   1.390       .  A
C2437      F2444   1.358       .  S
C2438      C2439   1.399       .  A
C2438      H2443   1.084       .  S
C2439      C2440   1.405       .  A
C2440      F2441   1.357       .  S
C2445      C2446   1.405       .  A
C2445      C2450   1.404       .  A
C2445      H2452   1.083       .  S
C2446      C2447   1.406       .  A
C2447      C2448   1.391       .  A
C2447      F2454   1.359       .  S
C2448      C2449   1.398       .  A
C2448      H2453   1.084       .  S
C2449      C2450   1.404       .  A
C2450      F2451   1.357       .  S
C2455      C2456   1.412       .  A
C2455      C2460   1.399       .  A
C2455      H2462   1.083       .  S
C2456      C2457   1.405       .  A
C2457      C2458   1.400       .  A
C2457      F2464   1.357       .  S
C2458      C2459   1.410       .  A
C2458      H2463   1.083       .  S
C2459      C2460   1.403       .  A
C2460      F2461   1.358       .  S
C2465      C2466   1.396       .  A
C2465      C2470   1.387       .  A
C2465      H2472   1.084       .  S
C2466      C2467   1.404       .  A
C2467      C2468   1.403       .  A
C2467      F2474   1.357       .  S
C2468      C2469   1.405       .  A
C2468      H2473   1.083       .  S
C2469      C2470   1.406       .  A
C2475      C2476   1.405       .  A
C2475      C2480   1.400       .  A
C2475      H2482   1.083       .  S
C2476      C2477   1.414       .  A
C2477      C2478   1.391       .  A
C2477      F2484   1.358       .  S
C2478      C2479   1.399       .  A
C2478      H2483   1.084       .  S
C2479      C2480   1.409       .  A
C2480      F2481   1.358       .  S
C2485      C2486   1.403       .  A
C2485      C2490   1.386       .  A
C2485      H2492   1.083       .  S
C2486      C2487   1.409       .  A
C2487      C2488   1.405       .  A
C2487      F2494   1.357       .  S
C2488      C2489   1.408       .  A
C2488      H2493   1.083       .  S
C2489      C2490   1.409       .  A
C2490      F2491   1.358       .  S
C2495      C2496   1.403       .  A
C2495      C2500   1.405       .  A
C2495      H2502   1.083       .  S
C2496      C2497   1.407       .  A
C2497      C2498   1.395       .  A
C2497      F2504   1.358       .  S
C2498      C2499   1.398       .  A
C2498      H2503   1.084       .  S
C2499      C2500   1.407       .  A
C2500      F2501   1.357       .  S
C2505      C2506   1.400       .  A
C2505      C2510   1.392       .  A
C2505      H2512   1.084       .  S
C2506      C2507   1.407       .  A
C2507      C2508   1.406       .  A
C2507      F2514   1.357       .  S
C2508      C2509   1.409       .  A
C2508      H2513   1.083       .  S
C2509      C2510   1.413       .  A
C2515      C2516   1.405       .  A
C2515      C2520   1.388       .  A
C2515      H2522   1.084       .  S
C2516      C2517   1.408       .  A
C2517      C2518   1.410       .  A
C2518      C2519   1.407       .  A
C2518      H2523   1.083       .  S
C2519      C2520   1.401       .  A
C2520      F2521   1.359       .  S
C2525      C2526   1.402       .  A
C2525      C2530   1.406       .  A
C2525      H2532   1.083       .  S
C2526      C2527   1.404       .  A
C2527      C2528   1.385       .  A
C2527      F2534   1.359       .  S
C2528      C2529   1.402       .  A
C2528      H2533   1.083       .  S
C2529      C2530   1.413       .  A
C2530      F2531   1.357       .  S
C2535      C2536   1.406       .  A
C2535      C2540   1.402       .  A
C2535      H2542   1.084       .  S
C2536      C2537   1.408       .  A
C2537      C2538   1.406       .  A
C2537      F2544   1.357       .  S
C2538      C2539   1.406       .  A
C2538      H2543   1.084       .  S
C2539      C2540   1.405       .  A
C2540      F2541   1.358       .  S
