geometry optimzed in LAMMPS
_audit_creation_date              2020-12-01 
_audit_creation_method            'lammps2cif' 
_symmetry_space_group_name_H-M    'P1' 
_symmetry_Int_Tables_number       1 
_symmetry_cell_setting            triclinic 
loop_ 
_symmetry_equiv_pos_as_xyz 
  x,y,z 
_cell_length_a                    38.02659676 
_cell_length_b                    38.104756433633185 
_cell_length_c                    39.72240863121209 
_cell_angle_alpha                 89.99834988977841 
_cell_angle_beta                  89.99478371733886 
_cell_angle_gamma                 90.06510999776056 
loop_ 
_atom_site_label 
_atom_site_type_symbol 
_atom_site_fract_x 
_atom_site_fract_y 
_atom_site_fract_z 
_atom_site_charge 
O1          O  0.51099433  0.92854423  0.12947191    -0.85600
O2          O  0.47860380  0.94644210  0.07313610    -0.82600
C3          C  0.45731801  0.95671975  0.05155123     0.97900
O4          O  0.42467864  0.95829425  0.05878149    -0.82700
O5          O  0.40905738  0.89011641  0.07754361    -0.85300
C6          C  0.40642713  0.86219634  0.09405649     1.02400
O7          O  0.41403624  0.86154452  0.12534329    -0.78100
O8          O  0.48330718  0.87853661  0.12790961    -0.78300
C9          C  0.51021714  0.89626669  0.12145372     1.02400
O10         O  0.46691721  0.97890369  0.16520787    -0.85600
O11         O  0.43885430  0.00266968  0.10525881    -0.82600
C12         C  0.40573345  0.00634963  0.10894566     0.97900
O13         O  0.38779714  0.98064654  0.11892045    -0.82700
O14         O  0.36784172  0.91210653  0.13455578    -0.85300
C15         C  0.37243860  0.90728784  0.16604600     1.02400
O16         O  0.40214076  0.91186271  0.17904267    -0.78100
O17         O  0.47260168  0.92593951  0.18600907    -0.78200
C18         C  0.47397313  0.95929244  0.18972649     1.02300
Cr19       Cr  0.47160607  0.96239066  0.11893729     1.93700
Cr20       Cr  0.39968132  0.93505383  0.09922583     1.93200
Cr21       Cr  0.44299436  0.89681091  0.15295818     1.39100
O22         O  0.43773870  0.93163318  0.12420184    -1.23300
O23         O  0.98241399  0.05896354  0.37813652    -0.85600
O24         O  0.01587344  0.04268880  0.32241708    -0.82600
C25         C  0.03675094  0.03280637  0.30036886     0.97900
O26         O  0.06938938  0.03082576  0.30746998    -0.82700
O27         O  0.08382186  0.09806164  0.32539430    -0.85300
C28         C  0.08666690  0.12636778  0.34102627     1.02400
O29         O  0.07806656  0.12826764  0.37203366    -0.78100
O30         O  0.00915348  0.10912919  0.37401587    -0.78300
C31         C  0.98242865  0.09076603  0.36856352     1.02400
O32         O  0.02765252  0.00988617  0.41375630    -0.85600
O33         O  0.05647906  0.98644595  0.35363903    -0.82600
C34         C  0.08969323  0.98397736  0.35757051     0.97900
O35         O  0.10627420  0.00975892  0.36890396    -0.82700
O36         O  0.12562355  0.07784863  0.38279569    -0.85300
C37         C  0.12113205  0.08412192  0.41405989     1.02400
O38         O  0.09115359  0.08121488  0.42722207    -0.78100
O39         O  0.02076032  0.06318607  0.43394051    -0.78200
C40         C  0.01941859  0.02968952  0.43778823     1.02300
Cr41       Cr  0.02284175  0.02614522  0.36764482     1.93700
Cr42       Cr  0.09406003  0.05430568  0.34792132     1.93200
Cr43       Cr  0.04969625  0.09309396  0.40034580     1.39100
O44         O  0.05612827  0.05752757  0.37283519    -1.23300
O45         O  0.18060222  0.73163553  0.25519470    -0.85600
O46         O  0.20137376  0.76334786  0.19978770    -0.82600
C47         C  0.21491358  0.78283731  0.17839303     0.97900
O48         O  0.21778290  0.81556972  0.18491857    -0.82700
O49         O  0.14961738  0.83604017  0.19935089    -0.85300
C50         C  0.12039022  0.83887804  0.21380338     1.02400
O51         O  0.11714181  0.83012615  0.24475271    -0.78100
O52         O  0.13216157  0.76067447  0.24810852    -0.78300
C53         C  0.14968463  0.73334946  0.24335219     1.02400
O54         O  0.23067044  0.77472591  0.29216372    -0.85600
O55         O  0.25846581  0.80044765  0.23326050    -0.82600
C56         C  0.26335111  0.83319330  0.23766084     0.97900
O57         O  0.23789966  0.85161613  0.24712886    -0.82700
O58         O  0.16978536  0.87535329  0.25772250    -0.85300
C59         C  0.16145536  0.87084346  0.28855934     1.02400
O60         O  0.16352132  0.84097052  0.30175616    -0.78100
O61         O  0.17638035  0.77043829  0.31055193    -0.78200
C62         C  0.20972794  0.76835197  0.31582120     1.02300
Cr63       Cr  0.21618020  0.76974884  0.24558526     1.93700
Cr64       Cr  0.19342515  0.84235480  0.22401136     1.93200
Cr65       Cr  0.14959523  0.80039232  0.27495343     1.39100
O66         O  0.18651654  0.80469211  0.24878254    -1.23300
O67         O  0.98282061  0.88116892  0.12569083    -0.85600
O68         O  0.91351983  0.86353351  0.13122942    -0.82600
C69         C  0.90631564  0.86646171  0.16262125     0.97900
O70         O  0.91068247  0.89528815  0.17707282    -0.82700
O71         O  0.92554319  0.96367257  0.19157431    -0.85300
C72         C  0.95840323  0.96210066  0.19775867     1.02400
O73         O  0.97847760  0.95058303  0.17576891    -0.78100
O74         O  0.00978550  0.93111163  0.11994488    -0.78300
C75         C  0.00969111  0.89958629  0.13049016     1.02400
O76         O  0.96997675  0.92558869  0.06494153    -0.85600
O77         O  0.89977677  0.91063805  0.07508824    -0.82600
C78         C  0.87035800  0.90677020  0.08894005     0.97900
O79         O  0.86673110  0.91308261  0.12027476    -0.82700
O80         O  0.88705981  0.98153375  0.13007509    -0.85300
C81         C  0.90372764  0.00787971  0.13995602     1.02400
O82         O  0.93702774  0.00555095  0.14335740    -0.78100
O83         O  0.96327210  0.97923543  0.08387779    -0.78200
C84         C  0.97121096  0.95896171  0.06021119     1.02300
Cr85       Cr  0.94158050  0.89741358  0.10054135     1.93700
Cr86       Cr  0.89958834  0.93813936  0.15305611     1.93200
Cr87       Cr  0.97007697  0.96499168  0.13019861     1.39100
O88         O  0.93671323  0.93362798  0.12736623    -1.23300
O89         O  0.85248749  0.23086751  0.25607760    -0.85600
O90         O  0.87412986  0.16309882  0.25771118    -0.82600
C91         C  0.87104130  0.15384198  0.28847794     0.97900
O92         O  0.84155561  0.15491352  0.30252113    -0.82700
O93         O  0.77199630  0.16682886  0.31642131    -0.85300
C94         C  0.77196126  0.19940942  0.32402666     1.02400
O95         O  0.78071126  0.22153186  0.30263417    -0.78100
O96         O  0.80165638  0.25599499  0.24913054    -0.78300
C97         C  0.83267962  0.25652394  0.26107124     1.02400
O98         O  0.81152991  0.21956143  0.19307093    -0.85600
O99         O  0.83071263  0.15011940  0.19950594    -0.82600
C100        C  0.83405346  0.12000017  0.21195336     0.97900
O101        O  0.82632451  0.11424667  0.24275888    -0.82700
O102        O  0.75678574  0.13027172  0.25288678    -0.85300
C103        C  0.72932925  0.14590505  0.26153113     1.02400
O104        O  0.73027869  0.17889250  0.26657517    -0.78100
O105        O  0.75753745  0.20828211  0.20942600    -0.78200
C106        C  0.77847926  0.21764526  0.18685211     1.02300
Cr107      Cr  0.83981820  0.19085260  0.22795287     1.93700
Cr108      Cr  0.79932299  0.14388629  0.27701659     1.93200
Cr109      Cr  0.76942856  0.21411622  0.25629112     1.39100
O110        O  0.80277053  0.18252092  0.25327347    -1.23300
O111        O  0.13281493  0.25946872  0.25186122    -0.85600
O112        O  0.11591236  0.32834143  0.25819991    -0.82600
C113        C  0.11879706  0.33515047  0.28970757     0.97900
O114        O  0.14773645  0.33061594  0.30398486    -0.82700
O115        O  0.21617543  0.31529339  0.31861205    -0.85300
C116        C  0.21461297  0.28258516  0.32524812     1.02400
O117        O  0.20351685  0.26180075  0.30356254    -0.78100
O118        O  0.18248238  0.23181314  0.24696982    -0.78300
C119        C  0.15084040  0.23261699  0.25722794     1.02400
O120        O  0.17746341  0.27174530  0.19164438    -0.85600
O121        O  0.16309854  0.34179212  0.20183201    -0.82600
C122        C  0.15948868  0.37105192  0.21582948     0.97900
O123        O  0.16602804  0.37456621  0.24715481    -0.82700
O124        O  0.23466475  0.35320295  0.25718593    -0.85300
C125        C  0.26064176  0.33625577  0.26761656     1.02400
O126        O  0.25806449  0.30302086  0.27059398    -0.78100
O127        O  0.23121619  0.27740104  0.21093721    -0.78200
C128        C  0.21087641  0.27004792  0.18708141     1.02300
Cr129      Cr  0.14963371  0.30023550  0.22727760     1.93700
Cr130      Cr  0.19087016  0.34137189  0.28002220     1.93200
Cr131      Cr  0.21708321  0.27061197  0.25738813     1.39100
O132        O  0.18594840  0.30433948  0.25444871    -1.23300
O133        O  0.00842460  0.60759952  0.12791222    -0.85600
O134        O  0.07814841  0.62514458  0.13239737    -0.82600
C135        C  0.08560240  0.62230947  0.16368364     0.97900
O136        O  0.07979370  0.59391211  0.17834864    -0.82700
O137        O  0.06508491  0.52580037  0.19402391    -0.85300
C138        C  0.03220636  0.52712557  0.20013849     1.02400
O139        O  0.01196303  0.53780675  0.17787092    -0.78100
O140        O  0.98105405  0.55796433  0.12218362    -0.78300
C141        C  0.98172854  0.58921613  0.13343776     1.02400
O142        O  0.02058064  0.56356419  0.06701478    -0.85600
O143        O  0.09092549  0.57866709  0.07646112    -0.82600
C144        C  0.12045469  0.58148381  0.09040697     0.97900
O145        O  0.12406929  0.57489571  0.12173424    -0.82700
O146        O  0.10397701  0.50664576  0.13348889    -0.85300
C147        C  0.08655887  0.48053643  0.14295529     1.02400
O148        O  0.05321472  0.48320729  0.14550236    -0.78100
O149        O  0.02696171  0.50959692  0.08542142    -0.78200
C150        C  0.01981296  0.53029459  0.06176264     1.02300
Cr151      Cr  0.04931840  0.59142496  0.10236104     1.93700
Cr152      Cr  0.09110560  0.55063976  0.15513776     1.93200
Cr153      Cr  0.02046386  0.52374839  0.13210167     1.39100
O154        O  0.05414277  0.55493135  0.12913647    -1.23300
O155        O  0.00649401  0.42774879  0.38008060    -0.85600
O156        O  0.97355443  0.44534739  0.32455660    -0.82600
C157        C  0.95315230  0.45645212  0.30268017     0.97900
O158        O  0.92049346  0.45893262  0.30967719    -0.82700
O159        O  0.90431395  0.39163079  0.32752872    -0.85300
C160        C  0.89932455  0.36355897  0.34313261     1.02400
O161        O  0.90820839  0.36148163  0.37412975    -0.78100
O162        O  0.97839334  0.37834400  0.37535233    -0.78300
C163        C  0.00545222  0.39621127  0.36971544     1.02400
O164        O  0.96246244  0.47820800  0.41588343    -0.85600
O165        O  0.93450327  0.50260333  0.35621614    -0.82600
C166        C  0.90141421  0.50601014  0.36047139     0.97900
O167        O  0.88389089  0.48043526  0.37097495    -0.82700
O168        O  0.86300681  0.41286654  0.38511602    -0.85300
C169        C  0.86776414  0.40668905  0.41639854     1.02400
O170        O  0.89787190  0.40953491  0.42923488    -0.78100
O171        O  0.96874054  0.42482453  0.43590939    -0.78200
C172        C  0.97043522  0.45834359  0.43990161     1.02300
Cr173      Cr  0.96707371  0.46192368  0.36980869     1.93700
Cr174      Cr  0.89512090  0.43570213  0.35001454     1.93200
Cr175      Cr  0.93850898  0.39575754  0.40223236     1.39100
O176        O  0.93297785  0.43150446  0.37486422    -1.23300
O177        O  0.36160580  0.72934341  0.50190969    -0.85600
O178        O  0.37917203  0.65956021  0.00340919    -0.82600
C179        C  0.37849090  0.65132474  0.03455838     0.97900
O180        O  0.35044033  0.65337132  0.05093658    -0.82700
O181        O  0.28341818  0.66999829  0.07027617    -0.85300
C182        C  0.28578298  0.70258413  0.07733796     1.02400
O183        O  0.29491796  0.72358533  0.05505440    -0.78100
O184        O  0.31164087  0.75626952  0.99903376    -0.78300
C185        C  0.34333497  0.75579135  0.00904019     1.02400
O186        O  0.31429200  0.71859841  0.44274394    -0.85600
O187        O  0.32904038  0.64836564  0.45000086    -0.82600
C188        C  0.33231737  0.61851211  0.46296721     0.97900
O189        O  0.32679157  0.61381287  0.49435731    -0.82700
O190        O  0.25929830  0.63388656  0.00982051    -0.85300
C191        C  0.23390089  0.65164727  0.02053658     1.02400
O192        O  0.23763995  0.68460945  0.02443887    -0.78100
O193        O  0.26101177  0.71243691  0.46323243    -0.78200
C194        C  0.28076668  0.71998161  0.43887450     1.02300
Cr195      Cr  0.34368056  0.68903833  0.47620861     1.93700
Cr196      Cr  0.30520532  0.64501456  0.02927067     1.93200
Cr197      Cr  0.27791648  0.71689898  0.00989152     1.39100
O198        O  0.30868538  0.68315837  0.00455460    -1.23300
O199        O  0.68048098  0.22787644  0.50878495    -0.85600
O200        O  0.70073548  0.25792296  0.45255180    -0.82600
C201        C  0.70975897  0.27861534  0.42995167     0.97900
O202        O  0.71110094  0.31147441  0.43602830    -0.82700
O203        O  0.64304989  0.32584382  0.45164044    -0.85300
C204        C  0.61460193  0.33118110  0.46651005     1.02400
O205        O  0.61192197  0.32383588  0.49781657    -0.78100
O206        O  0.62886383  0.25621084  0.00339515    -0.78300
C207        C  0.64864658  0.22760494  0.49875442     1.02400
O208        O  0.72778102  0.27515379  0.04406032    -0.85600
O209        O  0.75445363  0.30097558  0.48448960    -0.82600
C210        C  0.75667621  0.33424222  0.48751152     0.97900
O211        O  0.73011652  0.35116020  0.49650344    -0.82700
O212        O  0.66311916  0.37116764  0.00858223    -0.85300
C213        C  0.65715749  0.36740366  0.04000239     1.02400
O214        O  0.66071953  0.33797426  0.05365984    -0.78100
O215        O  0.67396082  0.26810689  0.06298730    -0.78200
C216        C  0.70725669  0.26840124  0.06786867     1.02300
Cr217      Cr  0.71426939  0.26776417  0.49822192     1.93700
Cr218      Cr  0.68628137  0.33757157  0.47478442     1.93200
Cr219      Cr  0.64614934  0.29688899  0.02818122     1.39100
O220        O  0.68216082  0.30112256  0.00071640    -1.23300
O221        O  0.48449940  0.38255546  0.37667513    -0.85600
O222        O  0.41592153  0.36411365  0.38026453    -0.82600
C223        C  0.40894346  0.36566298  0.41171048     0.97900
O224        O  0.41120537  0.39425577  0.42713126    -0.82700
O225        O  0.42511947  0.46289312  0.44318486    -0.85300
C226        C  0.45764770  0.46150391  0.45056679     1.02400
O227        O  0.47936283  0.45172444  0.42912975    -0.78100
O228        O  0.51192176  0.43254672  0.37323491    -0.78300
C229        C  0.51101811  0.40081682  0.38298095     1.02400
O230        O  0.47306715  0.42785590  0.31674470    -0.85600
O231        O  0.40279704  0.41149513  0.32467680    -0.82600
C232        C  0.37329682  0.40718648  0.33822892     0.97900
O233        O  0.36898362  0.41359385  0.36946999    -0.82700
O234        O  0.38820383  0.48237925  0.38202856    -0.85300
C235        C  0.40535134  0.50869447  0.39166480     1.02400
O236        O  0.43850529  0.50601761  0.39567275    -0.78100
O237        O  0.46661917  0.48117698  0.33650497    -0.78200
C238        C  0.47435934  0.46124193  0.31248507     1.02300
Cr239      Cr  0.44413134  0.39889076  0.35102616     1.93700
Cr240      Cr  0.40064607  0.43806430  0.40368196     1.93200
Cr241      Cr  0.47193099  0.46606441  0.38297943     1.39100
O242        O  0.43852198  0.43455974  0.37865784    -1.23300
O243        O  0.31296649  0.25916451  0.50317125    -0.85600
O244        O  0.29661057  0.22569735  0.44672139    -0.82600
C245        C  0.28669424  0.20408025  0.42526632     0.97900
O246        O  0.28470350  0.17172957  0.43303179    -0.82700
O247        O  0.35244745  0.15724316  0.45275842    -0.85300
C248        C  0.38028897  0.15496741  0.46945783     1.02400
O249        O  0.38075239  0.16257107  0.50068709    -0.78100
O250        O  0.36425320  0.23274900  0.00275610    -0.78300
C251        C  0.34546379  0.25895219  0.49588434     1.02400
O252        O  0.26352829  0.21605308  0.03976857    -0.85600
O253        O  0.23949549  0.18645407  0.47863224    -0.82600
C254        C  0.23618553  0.15538155  0.98326723     0.97900
O255        O  0.26151094  0.13570706  0.49319105    -0.82700
O256        O  0.32933641  0.11673608  0.00977763    -0.85300
C257        C  0.33490443  0.12107716  0.04118387     1.02400
O258        O  0.33186786  0.15095325  0.05429807    -0.78100
O259        O  0.31651315  0.22150572  0.06108624    -0.78200
C260        C  0.28299401  0.22317443  0.06440420     1.02300
Cr261      Cr  0.27965957  0.21940876  0.49241087     1.93700
Cr262      Cr  0.30731592  0.14754064  0.47393053     1.93200
Cr263      Cr  0.34604139  0.19208246  0.02797458     1.39100
O264        O  0.31096795  0.18681055  0.99927629    -1.23300
O265        O  0.51125932  0.10826537  0.37902370    -0.85600
O266        O  0.58112974  0.12352209  0.38056968    -0.82600
C267        C  0.59064084  0.12089767  0.41138156     0.97900
O268        O  0.58926763  0.09204787  0.42639694    -0.82700
O269        O  0.57073993  0.02464617  0.44284824    -0.85300
C270        C  0.53850622  0.02709841  0.45163353     1.02400
O271        O  0.51645772  0.03863596  0.43128801    -0.78100
O272        O  0.48246258  0.05886115  0.37608355    -0.78300
C273        C  0.48399671  0.09086894  0.38480425     1.02400
O274        O  0.51905308  0.06277514  0.31888826    -0.85600
O275        O  0.58904080  0.07534497  0.32388710    -0.82600
C276        C  0.61977013  0.07694500  0.33499763     0.97900
O277        O  0.62590401  0.07125214  0.36608633    -0.82700
O278        O  0.60273821  0.00435656  0.37831560    -0.85300
C279        C  0.58607705  0.97923837  0.39067284     1.02400
O280        O  0.55338758  0.98275325  0.39652579    -0.78100
O281        O  0.52475270  0.00918727  0.33823433    -0.78200
C282        C  0.51756269  0.02948649  0.31431690     1.02300
Cr283      Cr  0.55019597  0.09029258  0.35219722     1.93700
Cr284      Cr  0.59485597  0.04838692  0.40192719     1.93200
Cr285      Cr  0.52136251  0.02411011  0.38482317     1.39100
O286        O  0.55559885  0.05447672  0.37951173    -1.23300
O287        O  0.63058301  0.75730999  0.49799981    -0.85600
O288        O  0.61267871  0.82676805  0.00228676    -0.82600
C289        C  0.61314124  0.83271941  0.03395679     0.97900
O290        O  0.64101194  0.82901215  0.05029588    -0.82700
O291        O  0.70955595  0.81546107  0.06854941    -0.85300
C292        C  0.71041481  0.78241623  0.07365674     1.02400
O293        O  0.69926635  0.76224551  0.05160363    -0.78100
O294        O  0.68248681  0.73191107  0.99428667    -0.78300
C295        C  0.65071874  0.73174134  0.00414878     1.02400
O296        O  0.67836783  0.77027914  0.44001982    -0.85600
O297        O  0.66228102  0.83965587  0.44884152    -0.82600
C298        C  0.65669797  0.86872619  0.46251241     0.97900
O299        O  0.66100667  0.87257926  0.49419955    -0.82700
O300        O  0.73009625  0.85533597  0.00919292    -0.85300
C301        C  0.75618602  0.83831423  0.01922231     1.02400
O302        O  0.75434489  0.80504407  0.02153761    -0.78100
O303        O  0.73101499  0.77832334  0.46146284    -0.78200
C304        C  0.71196209  0.77085490  0.43677800     1.02300
Cr305      Cr  0.64780301  0.79824817  0.47365881     1.93700
Cr306      Cr  0.68542260  0.84120405  0.02889735     1.93200
Cr307      Cr  0.71529477  0.77162234  0.00648224     1.39100
O308        O  0.68339262  0.80434422  0.00261638    -1.23300
O309        O  0.81546686  0.75805541  0.25782372    -0.85600
O310        O  0.79173445  0.72820910  0.20222935    -0.82600
C311        C  0.77758929  0.70816378  0.18164213     0.97900
O312        O  0.77531938  0.67535153  0.18810225    -0.82700
O313        O  0.84196221  0.65166559  0.20257455    -0.85300
C314        C  0.87080414  0.64722828  0.21726755     1.02400
O315        O  0.87476053  0.65687717  0.24782814    -0.78100
O316        O  0.86283049  0.72740051  0.25036702    -0.78300
C317        C  0.84622809  0.75535550  0.24562136     1.02400
O318        O  0.76431118  0.71604949  0.29493491    -0.85600
O319        O  0.73475755  0.69238344  0.23605472    -0.82600
C320        C  0.72879190  0.65982460  0.24028451     0.97900
O321        O  0.75310998  0.64063563  0.25081913    -0.82700
O322        O  0.82011200  0.61408862  0.26129200    -0.85300
C323        C  0.82887915  0.61853666  0.29199849     1.02400
O324        O  0.82864741  0.64867128  0.30481320    -0.78100
O325        O  0.81887388  0.71944682  0.31285722    -0.78200
C326        C  0.78567548  0.72109706  0.31844968     1.02300
Cr327      Cr  0.77818968  0.72146073  0.24842261     1.93700
Cr328      Cr  0.79805062  0.64772783  0.22733040     1.93200
Cr329      Cr  0.84399999  0.68839826  0.27750817     1.39100
O330        O  0.80679879  0.68546464  0.25136768    -1.15300
O331        O  0.48606364  0.55929812  0.12892548    -0.85600
O332        O  0.51802228  0.53886227  0.07322792    -0.82600
C333        C  0.53944173  0.52861893  0.05171598     0.97900
O334        O  0.57195157  0.52636895  0.05906337    -0.82700
O335        O  0.58708037  0.59424348  0.07375258    -0.85300
C336        C  0.59018456  0.62328456  0.08812485     1.02400
O337        O  0.58280197  0.62623432  0.11942614    -0.78100
O338        O  0.51333211  0.60935682  0.12454919    -0.78300
C339        C  0.48638238  0.59112005  0.11940805     1.02400
O340        O  0.53148388  0.51144282  0.16616176    -0.85600
O341        O  0.55831978  0.48475538  0.10724971    -0.82600
C342        C  0.59146095  0.48195814  0.11090768     0.97900
O343        O  0.60884449  0.50782201  0.12099993    -0.82700
O344        O  0.62957078  0.57668217  0.13110401    -0.85300
C345        C  0.62585309  0.58336807  0.16232970     1.02400
O346        O  0.59629021  0.57953041  0.17601260    -0.78100
O347        O  0.52561221  0.56513665  0.18511784    -0.78200
C348        C  0.52409807  0.53186390  0.18990991     1.02300
Cr349      Cr  0.52565508  0.52536326  0.11952805     1.93700
Cr350      Cr  0.59716550  0.55150528  0.09804214     1.93200
Cr351      Cr  0.55450485  0.59275902  0.14986199     1.39100
O352        O  0.55936723  0.55649061  0.12291589    -1.23300
C353        C  0.69882411  0.64263447  0.22305986    -0.00400
C354        C  0.69523462  0.64939996  0.18850911    -0.12300
C355        C  0.67475531  0.62790605  0.16780674     0.01800
C356        C  0.65405126  0.60092964  0.18204253    -0.00500
C357        C  0.65655458  0.59483276  0.21692613    -0.12200
C358        C  0.67980454  0.61436995  0.23713830     0.01700
H359        H  0.71032073  0.67028868  0.17699252     0.14700
H360        H  0.64075624  0.57429869  0.22830825     0.14700
C361        C  0.68372230  0.60462315  0.27201054     0.36400
C362        C  0.67661735  0.63382422  0.13198474     0.36300
N363        N  0.68657541  0.59600714  0.29980512    -0.44000
N364        N  0.67946254  0.63843890  0.10333670    -0.44000
C365        C  0.63612146  0.70338789  0.02532214    -0.00400
C366        C  0.61383153  0.71296369  0.05221036    -0.12300
C367        C  0.59904367  0.68771894  0.07360471     0.01800
C368        C  0.60586769  0.65199096  0.06781036    -0.00500
C369        C  0.62850253  0.64254579  0.04101557    -0.12200
C370        C  0.64393247  0.66782608  0.02017285     0.01700
H371        H  0.60816790  0.74046042  0.05676099     0.14700
H372        H  0.63457828  0.61514630  0.03646370     0.14700
C373        C  0.66644504  0.65594250  0.49302997     0.36400
C374        C  0.57626536  0.69911664  0.10051637     0.36300
N375        N  0.68547156  0.64729772  0.47186003    -0.44000
N376        N  0.55802384  0.70822891  0.12212799    -0.44000
C377        C  0.73041705  0.75959717  0.40560847    -0.00400
C378        C  0.71863705  0.72962867  0.38875404    -0.12300
C379        C  0.73814346  0.71518880  0.36224285     0.01800
C380        C  0.76993341  0.73110575  0.35135438    -0.00500
C381        C  0.78218435  0.76073154  0.36860502    -0.12200
C382        C  0.76288050  0.77495888  0.39556000     0.01700
H383        H  0.69470393  0.71672629  0.39703687     0.14700
H384        H  0.80602370  0.77366079  0.36014797     0.14700
C385        C  0.77650066  0.80605703  0.41181643     0.36400
C386        C  0.72518580  0.68340613  0.34691246     0.36300
N387        N  0.78744826  0.83092902  0.42487365    -0.44000
N388        N  0.71487287  0.65786883  0.33468331    -0.44000
C389        C  0.75864179  0.72550608  0.15407328    -0.00400
C390        C  0.76676961  0.71726404  0.12089369    -0.12300
C391        C  0.75275142  0.73717598  0.09462872     0.01800
C392        C  0.72946549  0.76553979  0.10149077    -0.00500
C393        C  0.72154619  0.77399345  0.13471394    -0.12200
C394        C  0.73589146  0.75427623  0.16102531     0.01700
H395        H  0.78501547  0.69611334  0.11556068     0.14700
H396        H  0.70340437  0.79522824  0.14005748     0.14700
C397        C  0.72630547  0.76389579  0.19501196     0.36400
C398        C  0.76350743  0.72839397  0.06074921     0.36300
N399        N  0.71854226  0.77183479  0.22213575    -0.44000
N400        N  0.77215623  0.72131954  0.03365407    -0.44000
C401        C  0.64022306  0.89632446  0.44192255    -0.00400
C402        C  0.65302404  0.93057243  0.44366942    -0.12300
C403        C  0.63668493  0.95750686  0.42567664     0.01800
C404        C  0.60627054  0.95035662  0.40600709    -0.00500
C405        C  0.59357623  0.91602064  0.40412584    -0.12200
C406        C  0.61059115  0.88889637  0.42137414     0.01700
H407        H  0.67562592  0.93632756  0.45940763     0.14700
H408        H  0.57018529  0.91046651  0.38941987     0.14700
C409        C  0.59609320  0.85394924  0.41858988     0.36400
C410        C  0.65073666  0.99254566  0.42952397     0.36300
N411        N  0.58447569  0.82598240  0.41610844    -0.44000
N412        N  0.66210215  0.02054845  0.43263514    -0.44000
C413        C  0.41077816  0.14010811  0.45183353    -0.00400
C414        C  0.42502712  0.15929607  0.42498068    -0.12300
C415        C  0.44774367  0.14341960  0.40181212     0.01800
C416        C  0.45595128  0.10739387  0.40493712    -0.00500
C417        C  0.44141691  0.08817640  0.43158813    -0.12200
C418        C  0.41919068  0.10417459  0.45504723     0.01700
H419        H  0.41739270  0.18648483  0.42146470     0.14700
H420        H  0.44807470  0.06067962  0.43460443     0.14700
C421        C  0.40437674  0.08240760  0.48113742     0.36400
C422        C  0.46106404  0.16428902  0.37426213     0.36300
N423        N  0.39318644  0.06374437  0.50145048    -0.44000
N424        N  0.47164246  0.18099906  0.35213254    -0.44000
C425        C  0.48668046  0.47850823  0.28048145    -0.00400
C426        C  0.48751764  0.51570382  0.27893635    -0.12300
C427        C  0.49997608  0.53390326  0.25048082     0.01800
C428        C  0.51191461  0.51506962  0.22214587    -0.00500
C429        C  0.51111545  0.47793375  0.22376948    -0.12200
C430        C  0.49875455  0.45977154  0.25216218     0.01700
H431        H  0.47855078  0.53102598  0.30026539     0.14700
H432        H  0.52012183  0.46252124  0.20251524     0.14700
C433        C  0.49895695  0.42191617  0.25116927     0.36400
C434        C  0.50027057  0.57178416  0.25139773     0.36300
N435        N  0.49921929  0.39156873  0.25007067    -0.44000
N436        N  0.50055396  0.60214497  0.25233346    -0.44000
C437        C  0.47293763  0.47718278  0.48075754    -0.00400
C438        C  0.47344204  0.51391578  0.48244317    -0.12300
C439        C  0.49845924  0.53290814  0.00317964     0.01800
C440        C  0.52364660  0.51347232  0.02147016    -0.00500
C441        C  0.52362905  0.47680844  0.01912193    -0.12200
C442        C  0.49875266  0.45949340  0.99920571     0.01700
H443        H  0.45589763  0.52908011  0.46659897     0.14700
H444        H  0.54142644  0.46159270  0.03467589     0.14700
C445        C  0.49817847  0.42165526  0.99917575     0.36400
C446        C  0.49723010  0.57073867  0.00537847     0.36300
N447        N  0.49707458  0.39133878  0.99972202    -0.44000
N448        N  0.49596744  0.59943266  0.50632869    -0.44000
C449        C  0.39398985  0.33573175  0.43071934    -0.00400
C450        C  0.41322815  0.32151241  0.45766415    -0.12300
C451        C  0.39759904  0.29778732  0.48035253     0.01800
C452        C  0.36187252  0.28810892  0.47648983    -0.00500
C453        C  0.34245319  0.30338699  0.45032771    -0.12200
C454        C  0.35800008  0.32703102  0.42775312     0.01700
H455        H  0.44025328  0.32973322  0.46154093     0.14700
H456        H  0.31441680  0.29985482  0.95090491     0.14700
C457        C  0.33555048  0.34337746  0.40309316     0.36400
C458        C  0.41811624  0.28542024  0.50852943     0.36300
N459        N  0.31641656  0.35613289  0.38407760    -0.44000
N460        N  0.43442761  0.27585970  0.53134683    -0.44000
C461        C  0.58713767  0.35008495  0.44704784    -0.00400
C462        C  0.59843473  0.37349852  0.42155147    -0.12300
C463        C  0.57448611  0.39108490  0.40072750     0.01800
C464        C  0.53833335  0.38502938  0.40481603    -0.00500
C465        C  0.52697953  0.36234063  0.43075756    -0.12200
C466        C  0.55089542  0.34525817  0.45200716     0.01700
H467        H  0.62630913  0.37804211  0.41767897     0.14700
H468        H  0.49906151  0.35794622  0.43454396     0.14700
C469        C  0.53749489  0.32236113  0.47792715     0.36400
C470        C  0.58773484  0.41374831  0.37449221     0.36300
N471        N  0.52644724  0.30525502  0.99946584    -0.44000
N472        N  0.59843761  0.43183043  0.35343070    -0.44000
C473        C  0.64192049  0.39613581  0.06023643    -0.00400
C474        C  0.65382815  0.43041089  0.05528534    -0.12300
C475        C  0.63867980  0.45837420  0.07281936     0.01800
C476        C  0.61059589  0.45225286  0.09566601    -0.00500
C477        C  0.59851904  0.41798657  0.10051580    -0.12200
C478        C  0.61404512  0.38991477  0.08331310     0.01700
H479        H  0.67477211  0.43540683  0.03735064     0.14700
H480        H  0.57652450  0.41324037  0.11731872     0.14700
C481        C  0.59931148  0.35533572  0.08839052     0.36400
C482        C  0.65100731  0.49332612  0.06497099     0.36300
N483        N  0.58743645  0.32768151  0.09248653    -0.44000
N484        N  0.66084598  0.52127674  0.05849247    -0.44000
C485        C  0.63336855  0.19798221  0.47899238    -0.00400
C486        C  0.65585474  0.17574274  0.46084664    -0.12300
C487        C  0.64240651  0.15156664  0.43746767     0.01800
C488        C  0.60590878  0.15035402  0.43060074    -0.00500
C489        C  0.58331971  0.17169352  0.44932393    -0.12200
C490        C  0.59651703  0.19485972  0.47369455     0.01700
H491        H  0.68071664  0.17679441  0.96661946     0.14700
H492        H  0.55511192  0.16902631  0.44602568     0.14700
C493        C  0.57134619  0.21372097  0.49401350     0.36400
C494        C  0.66650375  0.12718884  0.42194906     0.36300
N495        N  0.55107336  0.22843161  0.51050951    -0.44000
N496        N  0.68601629  0.10748401  0.41003875    -0.44000
C497        C  0.34890343  0.59107895  0.44222204    -0.00400
C498        C  0.38286096  0.59763320  0.42970308    -0.12300
C499        C  0.40130151  0.57216911  0.41142684     0.01800
C500        C  0.38544757  0.53932319  0.40497299    -0.00500
C501        C  0.35052308  0.53376093  0.41598242    -0.12200
C502        C  0.33235683  0.55913297  0.43462863     0.01700
H503        H  0.39551725  0.62268200  0.43510328     0.14700
H504        H  0.33762099  0.50870408  0.41129540     0.14700
C505        C  0.29676410  0.55215412  0.44531723     0.36400
C506        C  0.43623351  0.58048485  0.39963137     0.36300
N507        N  0.26620000  0.55080928  0.94478160    -0.44000
N508        N  0.46417189  0.58736527  0.39011498    -0.44000
C509        C  0.40921235  0.63674475  0.05263403    -0.00400
C510        C  0.42480814  0.65724559  0.07787328    -0.12300
C511        C  0.44862993  0.64261282  0.10093232     0.01800
C512        C  0.45710840  0.60648223  0.09932084    -0.00500
C513        C  0.44085857  0.58579971  0.07448247    -0.12200
C514        C  0.41709837  0.60051549  0.05134879     0.01700
H515        H  0.41743322  0.68463565  0.08025428     0.14700
H516        H  0.44726286  0.55813892  0.07263153     0.14700
C517        C  0.40020060  0.57747430  0.02744154     0.36400
C518        C  0.46255986  0.66495586  0.12708687     0.36300
N519        N  0.38686839  0.55844122  0.00865582    -0.44000
N520        N  0.47340189  0.68293134  0.14815794    -0.44000
C521        C  0.88169996  0.53625353  0.34646674    -0.00400
C522        C  0.84980756  0.52914361  0.32951533    -0.12300
C523        C  0.83185962  0.55534716  0.31172102     0.01800
C524        C  0.84493773  0.58983467  0.31182722    -0.00500
C525        C  0.87599343  0.59728992  0.32991181    -0.12200
C526        C  0.89468941  0.57080293  0.34663144     0.01700
H527        H  0.83969401  0.50252887  0.32867742     0.14700
H528        H  0.88648304  0.62377597  0.32992277     0.14700
C529        C  0.92687416  0.57976415  0.36386247     0.36400
C530        C  0.80040444  0.54614757  0.29335529     0.36300
N531        N  0.95265895  0.58699755  0.37770508    -0.44000
N532        N  0.77527057  0.53876510  0.27851712    -0.44000
C533        C  0.78686276  0.35447573  0.47372047    -0.00400
C534        C  0.77940029  0.38624875  0.45679618    -0.12300
C535        C  0.80521265  0.40403418  0.43823548     0.01800
C536        C  0.83964559  0.39077443  0.43720842    -0.00500
C537        C  0.84763281  0.36007836  0.45550236    -0.12200
C538        C  0.82156943  0.34171056  0.47332233     0.01700
H539        H  0.75276907  0.39640426  0.45654313     0.14700
H540        H  0.87416129  0.34966131  0.45486396     0.14700
C541        C  0.83053161  0.30453728  0.98661647     0.36400
C542        C  0.79571632  0.43570225  0.42048666     0.36300
N543        N  0.83740346  0.27804777  0.99924340    -0.44000
N544        N  0.78801969  0.46110032  0.40632250    -0.44000
C545        C  0.89938516  0.62980857  0.19816726    -0.00400
C546        C  0.93339128  0.64319038  0.20034098    -0.12300
C547        C  0.95989370  0.63137721  0.17874428     0.01800
C548        C  0.95327115  0.60372679  0.15537473    -0.00500
C549        C  0.91957208  0.58869036  0.15488036    -0.12200
C550        C  0.89260552  0.60178496  0.17555469     0.01700
H551        H  0.93883578  0.66445419  0.21776801     0.14700
H552        H  0.91406445  0.56707868  0.13791478     0.14700
C553        C  0.85833671  0.58550210  0.17354764     0.36400
C554        C  0.99324453  0.64919283  0.18131690     0.36300
N555        N  0.83085257  0.57252228  0.17197866    -0.44000
N556        N  0.01928974  0.66464601  0.18385157    -0.44000
C557        C  0.98342370  0.47596605  0.47148799    -0.00400
C558        C  0.97615042  0.51212256  0.47613437    -0.12300
C559        C  0.98749887  0.53098882  0.00492546     0.01800
C560        C  0.00876299  0.51391715  0.02896956    -0.00500
C561        C  0.01789103  0.47847985  0.02293206    -0.12200
C562        C  0.00500518  0.45928341  0.49548332     0.01700
H563        H  0.96010369  0.52590660  0.45785723     0.14700
H564        H  0.03487589  0.46489288  0.04055777     0.14700
C565        C  0.01611996  0.42335441  0.49133094     0.36400
C566        C  0.97784647  0.56742209  0.00857068     0.36300
N567        N  0.02531494  0.39463892  0.48787551    -0.44000
N568        N  0.97034880  0.59670528  0.01140407    -0.44000
C569        C  0.97054205  0.47179002  0.27280848    -0.00400
C570        C  0.00588849  0.46191098  0.26688154    -0.12300
C571        C  0.02807194  0.48168924  0.24622916     0.01800
C572        C  0.01472784  0.51145902  0.22976942    -0.00500
C573        C  0.97939102  0.52126320  0.23561453    -0.12200
C574        C  0.95724072  0.50153172  0.25630615     0.01700
H575        H  0.01684341  0.43924786  0.27968148     0.14700
H576        H  0.96845072  0.54392681  0.22280185     0.14700
C577        C  0.92114604  0.51251366  0.25976608     0.36400
C578        C  0.06422619  0.47079241  0.24281447     0.36300
N579        N  0.89214363  0.52139560  0.26169145    -0.44000
N580        N  0.09326951  0.46200993  0.24093696    -0.44000
C581        C  0.14925470  0.59756766  0.07077552    -0.00400
C582        C  0.14250906  0.62942042  0.05401234    -0.12300
C583        C  0.16918759  0.64731718  0.03664779     0.01800
C584        C  0.20313867  0.63263808  0.03476872    -0.00500
C585        C  0.20933404  0.59996452  0.05049761    -0.12200
C586        C  0.18299327  0.58282722  0.06894412     0.01700
H587        H  0.11648516  0.64097500  0.05544406     0.14700
H588        H  0.23542582  0.58852253  0.04988263     0.14700
C589        C  0.19114801  0.55033149  0.08590296     0.36400
C590        C  0.16096371  0.68052202  0.02105240     0.36300
N591        N  0.19753939  0.52433274  0.09965144    -0.44000
N592        N  0.15418721  0.70714606  0.00863681    -0.44000
C593        C  0.29031254  0.35594267  0.28308603    -0.00400
C594        C  0.32355315  0.34031970  0.28545116    -0.12300
C595        C  0.35094992  0.35695706  0.30292612     0.01800
C596        C  0.34532738  0.38998518  0.31841689    -0.00500
C597        C  0.31214117  0.40536878  0.31662953    -0.12200
C598        C  0.28467374  0.38876569  0.29941040     0.01700
H599        H  0.32791699  0.31470757  0.27430168     0.14700
H600        H  0.30748749  0.43013601  0.32934593     0.14700
C601        C  0.25040971  0.40502082  0.30138076     0.36400
C602        C  0.38383656  0.33839460  0.30659062     0.36300
N603        N  0.22296109  0.41797084  0.30324353    -0.44000
N604        N  0.41000359  0.32325222  0.30969684    -0.44000
C605        C  0.22799058  0.25772918  0.15503714    -0.00400
C606        C  0.26436859  0.24970822  0.15590671    -0.12300
C607        C  0.28283015  0.23835821  0.12730353     0.01800
C608        C  0.26525365  0.23502446  0.09623337    -0.00500
C609        C  0.22882460  0.24278981  0.09532760    -0.12200
C610        C  0.21022909  0.25370995  0.12412343     0.01700
H611        H  0.27879874  0.25185793  0.17935732     0.14700
H612        H  0.21446560  0.24035167  0.07186162     0.14700
C613        C  0.17307640  0.26059059  0.12093434     0.36400
C614        C  0.31949412  0.22936359  0.13112093     0.36300
N615        N  0.14324970  0.26586083  0.11816747    -0.44000
N616        N  0.34881716  0.22201061  0.13441197    -0.44000
C617        C  0.23165535  0.26614066  0.35441951    -0.00400
C618        C  0.26821482  0.26981145  0.35746067    -0.12300
C619        C  0.28766411  0.24659501  0.37747430     0.01800
C620        C  0.27050580  0.21926537  0.39507319    -0.00500
C621        C  0.23405339  0.21531384  0.39164878    -0.12200
C622        C  0.21462740  0.23844150  0.37161186     0.01700
H623        H  0.28182274  0.28969425  0.34284597     0.14700
H624        H  0.22040890  0.19544081  0.40625162     0.14700
C625        C  0.17700649  0.23370417  0.36950770     0.36400
C626        C  0.32537323  0.25081406  0.37925248     0.36300
N627        N  0.14683842  0.23003333  0.36809506    -0.44000
N628        N  0.35561922  0.25398759  0.38046495    -0.44000
C629        C  0.03426919  0.38064179  0.34911973    -0.00400
C630        C  0.06929415  0.38631616  0.35821385    -0.12300
C631        C  0.09690844  0.37154528  0.33953286     0.01800
C632        C  0.08983432  0.35101243  0.31020721    -0.00500
C633        C  0.05475229  0.34613485  0.30070274    -0.12200
C634        C  0.02715665  0.36035877  0.31985928     0.01700
H635        H  0.07512928  0.40195358  0.38034929     0.14700
H636        H  0.04878975  0.33087814  0.27836272     0.14700
C637        C  0.99185035  0.35462221  0.30780739     0.36400
C638        C  0.13224169  0.37865639  0.35113363     0.36300
N639        N  0.96395035  0.34955181  0.29728350    -0.44000
N640        N  0.16051466  0.38416344  0.36056923    -0.44000
C641        C  0.10615352  0.45060079  0.15805102    -0.00400
C642        C  0.13943526  0.45764463  0.17252952    -0.12300
C643        C  0.15712232  0.43251664  0.19195261     0.01800
C644        C  0.14225591  0.39912004  0.19621896    -0.00500
C645        C  0.10972382  0.39150314  0.18090327    -0.12200
C646        C  0.09136821  0.41698173  0.16245203     0.01700
H647        H  0.15108219  0.48351052  0.17009169     0.14700
H648        H  0.09814816  0.36567620  0.18412602     0.14700
C649        C  0.05751627  0.40794563  0.14847687     0.36400
C650        C  0.19034908  0.44154096  0.20726475     0.36300
N651        N  0.03033882  0.40069841  0.13734312    -0.44000
N652        N  0.21694771  0.44874934  0.21963167    -0.44000
C653        C  0.64717521  0.09028494  0.31195205    -0.00400
C654        C  0.63851745  0.11865023  0.29067865    -0.12300
C655        C  0.66436137  0.13595987  0.27177590     0.01800
C656        C  0.69941598  0.12443524  0.27349088    -0.00500
C657        C  0.70730349  0.09390132  0.29214980    -0.12200
C658        C  0.68162602  0.07708155  0.31161257     0.01700
H659        H  0.61179696  0.12857731  0.29020393     0.14700
H660        H  0.73417859  0.08449966  0.29348330     0.14700
C661        C  0.69125999  0.04668727  0.33122669     0.36400
C662        C  0.65446374  0.16565851  0.25131596     0.36300
N663        N  0.69887208  0.02220904  0.34684345    -0.44000
N664        N  0.64648446  0.18932108  0.23473645    -0.44000
C665        C  0.76227969  0.22887195  0.15459374    -0.00400
C666        C  0.77362471  0.25986034  0.13904453    -0.12300
C667        C  0.75470699  0.27431764  0.11204367     0.01800
C668        C  0.72372027  0.25768594  0.10006536    -0.00500
C669        C  0.71233446  0.22681878  0.11565505    -0.12200
C670        C  0.73134511  0.21219353  0.14240165     0.01700
H671        H  0.79655854  0.27346965  0.14873063     0.14700
H672        H  0.68935359  0.21325280  0.10599441     0.14700
C673        C  0.71892861  0.17938218  0.15631216     0.36400
C674        C  0.76718501  0.30679939  0.09752288     0.36300
N675        N  0.70897461  0.15310013  0.16740784    -0.44000
N676        N  0.77713218  0.33282596  0.08588020    -0.44000
C677        C  0.72338730  0.26171964  0.39935693    -0.00400
C678        C  0.70748131  0.22992478  0.38945671    -0.12300
C679        C  0.72424195  0.20683763  0.36731013     0.01800
C680        C  0.75814825  0.21475321  0.35536490    -0.00500
C681        C  0.77422144  0.24626845  0.36588524    -0.12200
C682        C  0.75676127  0.27014879  0.38659078     0.01700
H683        H  0.68189281  0.22287428  0.39954544     0.14700
H684        H  0.79976751  0.25348256  0.35579828     0.14700
C685        C  0.77354045  0.30327712  0.39347226     0.36400
C686        C  0.70501991  0.17660108  0.35591367     0.36300
N687        N  0.78722069  0.33001887  0.39768914    -0.44000
N688        N  0.68871710  0.15267349  0.34725008    -0.44000
C689        C  0.84597758  0.28476385  0.28340298    -0.00400
C690        C  0.86505278  0.27470930  0.31233607    -0.12300
C691        C  0.88181154  0.29952888  0.33297878     0.01800
C692        C  0.88018087  0.33535305  0.32451909    -0.00500
C693        C  0.85971335  0.34536504  0.29629567    -0.12200
C694        C  0.84264350  0.32058324  0.27594766     0.01700
H695        H  0.86732672  0.24708043  0.31858764     0.14700
H696        H  0.85732510  0.37285980  0.28963635     0.14700
C697        C  0.82375169  0.33249581  0.24657739     0.36400
C698        C  0.90149641  0.28731966  0.36171680     0.36300
N699        N  0.80875029  0.34222595  0.22301459    -0.44000
N700        N  0.91721632  0.27742042  0.38477570    -0.44000
C701        C  0.78543959  0.85777783  0.03486397    -0.00400
C702        C  0.82004553  0.84760497  0.02855111    -0.12300
C703        C  0.84803612  0.86407771  0.04510238     0.01800
C704        C  0.84145561  0.89090535  0.06913510    -0.00500
C705        C  0.80671274  0.90083189  0.07564465    -0.12200
C706        C  0.77877570  0.88481736  0.05860152     0.01700
H707        H  0.82517981  0.82651557  0.01087548     0.14700
H708        H  0.80136465  0.92094357  0.09428492     0.14700
C709        C  0.74342396  0.89533341  0.06744100     0.36400
C710        C  0.88307648  0.85143406  0.03812100     0.36300
N711        N  0.71639904  0.91386518  0.56280674    -0.44000
N712        N  0.91112303  0.84126456  0.03245875    -0.44000
C713        C  0.89001452  0.83781927  0.18286068    -0.00400
C714        C  0.89929472  0.80289768  0.17715193    -0.12300
C715        C  0.88545242  0.77585975  0.19722145     0.01800
C716        C  0.86202254  0.78348657  0.22420976    -0.00500
C717        C  0.85188812  0.81837847  0.22914424    -0.12200
C718        C  0.86534252  0.84533824  0.20883996     0.01700
H719        H  0.91745815  0.79667730  0.15695387     0.14700
H720        H  0.83319012  0.82466069  0.24886613     0.14700
C721        C  0.85204738  0.88036357  0.21451868     0.36400
C722        C  0.89410430  0.74050832  0.18754902     0.36300
N723        N  0.84132241  0.90838760  0.21901349    -0.44000
N724        N  0.90121848  0.71261655  0.17842634    -0.44000
C725        C  0.88359664  0.03803504  0.15407541    -0.00400
C726        C  0.90003050  0.07078100  0.15761449    -0.12300
C727        C  0.88368989  0.09807362  0.17543119     0.01800
C728        C  0.85067596  0.09250900  0.19109326    -0.00500
C729        C  0.83385622  0.06024417  0.18709780    -0.12200
C730        C  0.84951183  0.03330176  0.16840083     0.01700
H731        H  0.92602250  0.07484715  0.14705872     0.14700
H732        H  0.80841549  0.05602098  0.19880172     0.14700
C733        C  0.83041128  0.00056854  0.16618720     0.36400
C734        C  0.90217913  0.13104626  0.17860906     0.36300
N735        N  0.81498276  0.97443474  0.16437270    -0.44000
N736        N  0.91700289  0.15747082  0.18101578    -0.44000
C737        C  0.13455062  0.70504978  0.22212700    -0.00400
C738        C  0.13859841  0.67007610  0.23174651    -0.12300
C739        C  0.12348010  0.64294451  0.21281182     0.01800
C740        C  0.10336572  0.65059853  0.18338873    -0.00500
C741        C  0.10093282  0.68554521  0.17289166    -0.12200
C742        C  0.11635526  0.71261202  0.19176028     0.01700
H743        H  0.15339303  0.66391827  0.25433588     0.14700
H744        H  0.08681190  0.69180455  0.14994222     0.14700
C745        C  0.11482223  0.74757266  0.17794165     0.36400
C746        C  0.13036616  0.60746738  0.22385706     0.36300
N747        N  0.11357834  0.77507399  0.16569245    -0.44000
N748        N  0.13601124  0.57907556  0.23267634    -0.44000
C749        C  0.22614210  0.75698008  0.34860077    -0.00400
C750        C  0.26213111  0.76479557  0.35394972    -0.12300
C751        C  0.28067714  0.75260249  0.38226822     0.01800
C752        C  0.26339742  0.73210296  0.40681636    -0.00500
C753        C  0.22730862  0.72450749  0.40168771    -0.12200
C754        C  0.20883624  0.73642243  0.37307588     0.01700
H755        H  0.27624100  0.78057410  0.33566088     0.14700
H756        H  0.21331078  0.70871376  0.42003513     0.14700
C757        C  0.17265763  0.72583816  0.36894252     0.36400
C758        C  0.31722520  0.76230335  0.38557164     0.36300
N759        N  0.14369787  0.71711608  0.36566344    -0.44000
N760        N  0.34652265  0.77016018  0.38802899    -0.44000
C761        C  0.23224973  0.76419258  0.15018506    -0.00400
C762        C  0.22247296  0.72871389  0.14495628    -0.12300
C763        C  0.24236526  0.70617518  0.12486545     0.01800
C764        C  0.27227476  0.71915460  0.10833968    -0.00500
C765        C  0.28291240  0.75414721  0.11458267    -0.12200
C766        C  0.26282181  0.77684287  0.13442322     0.01700
H767        H  0.19936632  0.71807451  0.15735586     0.14700
H768        H  0.30596409  0.76460489  0.10196985     0.14700
C769        C  0.27364232  0.81303828  0.13697533     0.36400
C770        C  0.23109233  0.67016177  0.12150125     0.36300
N771        N  0.28218963  0.84216012  0.13822034    -0.44000
N772        N  0.22211339  0.64121940  0.11949629    -0.44000
C773        C  0.03889668  0.88444173  0.15109846    -0.00400
C774        C  0.03067676  0.85737352  0.17418846    -0.12300
C775        C  0.05623599  0.84282251  0.19558368     0.01800
C776        C  0.09118553  0.85482687  0.19394358    -0.00500
C777        C  0.09945784  0.88186781  0.17093615    -0.12200
C778        C  0.07379832  0.89686967  0.14993400     0.01700
H779        H  0.00391101  0.84767262  0.17591149     0.14700
H780        H  0.12628203  0.89144056  0.16935144     0.14700
C781        C  0.08426478  0.92425059  0.12689389     0.36400
C782        C  0.04620836  0.81471922  0.21798419     0.36300
N783        N  0.09262229  0.94620297  0.10840316    -0.44000
N784        N  0.03822599  0.79213988  0.23591846    -0.44000
C785        C  0.13495279  0.20446765  0.27827415    -0.00400
C786        C  0.10444292  0.21276593  0.29712966    -0.12300
C787        C  0.08903179  0.18852609  0.31916013     0.01800
C788        C  0.10402002  0.15517125  0.32266021    -0.00500
C789        C  0.13458270  0.14685100  0.30425642    -0.12200
C790        C  0.15010886  0.17100267  0.28225118     0.01700
H791        H  0.09250593  0.23849655  0.29495520     0.14700
H792        H  0.14602373  0.12088173  0.30660582     0.14700
C793        C  0.18066622  0.16014052  0.26337605     0.36400
C794        C  0.05713520  0.19790117  0.33667182     0.36300
N795        N  0.20505791  0.15124043  0.24819491    -0.44000
N796        N  0.03151601  0.20539842  0.35064215    -0.44000
C797        C  0.14992980  0.09939595  0.43449324    -0.00400
C798        C  0.14335885  0.13051325  0.45261257    -0.12300
C799        C  0.17053001  0.14831835  0.46948457     0.01800
C800        C  0.20482925  0.13435957  0.46933771    -0.00500
C801        C  0.21087205  0.10232709  0.45247783    -0.12200
C802        C  0.18400865  0.08518807  0.43475782     0.01700
H803        H  0.11714492  0.14171705  0.45246909     0.14700
H804        H  0.23716153  0.09133299  0.45180167     0.14700
C805        C  0.19199462  0.05306174  0.41709119     0.36400
C806        C  0.16148258  0.17411232  0.99545117     0.36300
N807        N  0.19832549  0.02729307  0.40292868    -0.44000
N808        N  0.15406883  0.19665136  0.01363584    -0.44000
C809        C  0.00652360  0.01230941  0.46943818    -0.00400
C810        C  0.99623796  0.97655737  0.46811281    -0.12300
C811        C  0.98869214  0.95834537  0.99760676     0.01800
C812        C  0.98402048  0.97611870  0.02837706    -0.00500
C813        C  0.99190406  0.01249487  0.02931702    -0.12200
C814        C  0.00460997  0.02958298  0.50072471     0.01700
H815        H  0.99689346  0.96266818  0.44429907     0.14700
H816        H  0.98881577  0.02703283  0.05258863     0.14700
C817        C  0.01467042  0.06593015  0.50443015     0.36400
C818        C  0.98031711  0.92158205  0.99402531     0.36300
N819        N  0.02267173  0.09508633  0.50735814    -0.44000
N820        N  0.97355835  0.89213063  0.99097697    -0.44000
C821        C  0.02006125  0.01825128  0.26986441    -0.00400
C822        C  0.98490259  0.02842092  0.26346538    -0.12300
C823        C  0.96276297  0.00852579  0.24288616     0.01800
C824        C  0.97610267  0.97854022  0.22680911    -0.00500
C825        C  0.01144933  0.96882342  0.23265886    -0.12200
C826        C  0.03345088  0.98847451  0.25348902     0.01700
H827        H  0.97394869  0.05113434  0.27618528     0.14700
H828        H  0.02240230  0.94601775  0.22008836     0.14700
C829        C  0.06925913  0.97689161  0.25775268     0.36400
C830        C  0.92654108  0.01921761  0.23947040     0.36300
N831        N  0.09797597  0.96730813  0.26032382    -0.44000
N832        N  0.89740437  0.02768500  0.23753108    -0.44000
C833        C  0.95320979  0.10646367  0.34858770    -0.00400
C834        C  0.96150627  0.13323069  0.32521489    -0.12300
C835        C  0.93560754  0.14881524  0.30493220     0.01800
C836        C  0.90037762  0.13805368  0.30804553    -0.00500
C837        C  0.89210638  0.11123874  0.33128115    -0.12200
C838        C  0.91801607  0.09527551  0.35116384     0.01700
H839        H  0.98853901  0.14188151  0.32246900     0.14700
H840        H  0.86510247  0.10240867  0.33380914     0.14700
C841        C  0.90750023  0.06819255  0.37449983     0.36400
C842        C  0.94565567  0.17653315  0.28209000     0.36300
N843        N  0.89893572  0.04648021  0.39316058    -0.44000
N844        N  0.95362898  0.19881127  0.26380548    -0.44000
C845        C  0.11000612  0.95433953  0.34289829    -0.00400
C846        C  0.09527812  0.92067787  0.34215284    -0.12300
C847        C  0.11228210  0.89312546  0.32536737     0.01800
C848        C  0.14448838  0.89913403  0.30825896    -0.00500
C849        C  0.15927913  0.93267305  0.30889541    -0.12200
C850        C  0.14263931  0.96013831  0.32613615     0.01700
H851        H  0.07013058  0.91600990  0.35424763     0.14700
H852        H  0.18364185  0.93755261  0.29546169     0.14700
C853        C  0.15837888  0.99458197  0.32356401     0.36400
C854        C  0.09504670  0.85931694  0.32456168     0.36300
N855        N  0.17092679  0.02216672  0.32125966    -0.44000
N856        N  0.08130440  0.83220984  0.32387635    -0.44000
C857        C  0.39047301  0.83200373  0.07646204    -0.00400
C858        C  0.35423382  0.83330872  0.06974338    -0.12300
C859        C  0.33836915  0.80997341  0.04694945     0.01800
C860        C  0.35890448  0.78414285  0.03050941    -0.00500
C861        C  0.39526955  0.78287151  0.03771225    -0.12200
C862        C  0.41108286  0.80673285  0.05997197     0.01700
H863        H  0.33842980  0.85359209  0.08150270     0.14700
H864        H  0.41170487  0.76337706  0.02558119     0.14700
C865        C  0.44875099  0.80597206  0.06407868     0.36400
C866        C  0.30111657  0.81356738  0.04092157     0.36300
N867        N  0.47900947  0.80538166  0.06691233    -0.44000
N868        N  0.27127279  0.81663719  0.03604818    -0.44000
C869        C  0.50621148  0.01270967  0.28187554    -0.00400
C870        C  0.50205934  0.97579165  0.28117401    -0.12300
C871        C  0.49170126  0.95778658  0.25200181     0.01800
C872        C  0.48516260  0.97651357  0.22201393    -0.00500
C873        C  0.48937638  0.01344413  0.22264356    -0.12200
C874        C  0.49967794  0.03147966  0.25192748     0.01700
H875        H  0.50677011  0.96049201  0.30373880     0.14700
H876        H  0.48466961  0.02863547  0.20001371     0.14700
C877        C  0.50346737  0.06913284  0.25021217     0.36400
C878        C  0.48770376  0.92015597  0.25404456     0.36300
N879        N  0.50645023  0.09932705  0.24877832    -0.44000
N880        N  0.48450123  0.89000607  0.25586981    -0.44000
C881        C  0.52338965  0.01023169  0.48165568    -0.00400
C882        C  0.52414242  0.97343825  0.48300837    -0.12300
C883        C  0.50001370  0.95484150  0.50292316     0.01800
C884        C  0.47333749  0.97331669  0.02186007    -0.00500
C885        C  0.47284862  0.01009739  0.02057637    -0.12200
C886        C  0.49710419  0.02857572  0.00077144     0.01700
H887        H  0.54237096  0.95911297  0.46711670     0.14700
H888        H  0.45481277  0.02451729  0.03658138     0.14700
C889        C  0.49628049  0.06646576  0.00110203     0.36400
C890        C  0.50191317  0.91698621  0.50364503     0.36300
N891        N  0.49589922  0.09683001  0.00154534    -0.44000
N892        N  0.50332377  0.88665265  0.50419744    -0.44000
C893        C  0.38682371  0.03794792  0.09585514    -0.00400
C894        C  0.35162435  0.03380006  0.08500005    -0.12300
C895        C  0.33399450  0.06040953  0.06731691     0.01800
C896        C  0.35076567  0.09271358  0.06165504    -0.00500
C897        C  0.38518677  0.09767907  0.07376598    -0.12200
C898        C  0.40362945  0.07044348  0.08975489     0.01700
H899        H  0.33830102  0.00891314  0.08862188     0.14700
H900        H  0.39849714  0.12236399  0.06888545     0.14700
C901        C  0.44013773  0.07617092  0.09807736     0.36400
C902        C  0.29905911  0.05377486  0.05460544     0.36300
N903        N  0.46954855  0.08065126  0.10423849    -0.44000
N904        N  0.27112526  0.04843057  0.04422931    -0.44000
C905        C  0.34562083  0.88939053  0.18661552    -0.00400
C906        C  0.34764545  0.85271764  0.18929399    -0.12300
C907        C  0.32304557  0.83363560  0.20819282     0.01800
C908        C  0.29559222  0.85147752  0.22511073    -0.00500
C909        C  0.29565746  0.88862006  0.22452581    -0.12200
C910        C  0.32027436  0.90751829  0.20543435     0.01700
H911        H  0.36812000  0.83877743  0.17578828     0.14700
H912        H  0.27533774  0.90312003  0.23765759     0.14700
C913        C  0.31865041  0.94535212  0.20499214     0.36400
C914        C  0.32578925  0.79583783  0.20804090     0.36300
N915        N  0.31737900  0.97569243  0.20468473    -0.44000
N916        N  0.32800983  0.76555062  0.20758307    -0.44000
C917        C  0.53850302  0.87981866  0.10105839    -0.00400
C918        C  0.55490491  0.90002763  0.07608648    -0.12300
C919        C  0.57713545  0.88459686  0.05216220     0.01800
C920        C  0.58320025  0.84799262  0.05257477    -0.00500
C921        C  0.56753256  0.82784423  0.07807113    -0.12200
C922        C  0.54534786  0.84330030  0.10212639     0.01700
H923        H  0.54981511  0.92799915  0.07476186     0.14700
H924        H  0.57364840  0.80010036  0.07989212     0.14700
C925        C  0.53096428  0.82124461  0.12832349     0.36400
C926        C  0.59464127  0.90756247  0.02867632     0.36300
N927        N  0.51945976  0.80350888  0.14926826    -0.44000
N928        N  0.60826264  0.92707237  0.01056854    -0.44000
O929        O  0.51073766  0.92791952  0.62936053    -0.85600
O930        O  0.47885967  0.94586560  0.57287808    -0.82600
C931        C  0.45785863  0.95627389  0.55112474     0.97900
O932        O  0.42517269  0.95785541  0.55807160    -0.82700
O933        O  0.41035103  0.88946906  0.57661368    -0.85300
C934        C  0.40720561  0.86163739  0.59315780     1.02400
O935        O  0.41380413  0.86116410  0.62466504    -0.78100
O936        O  0.48291890  0.87795144  0.62811091    -0.78300
C937        C  0.50987101  0.89556638  0.62157969     1.02400
O938        O  0.46670344  0.97844193  0.66487245    -0.85600
O939        O  0.43855478  0.00210950  0.60487945    -0.82600
C940        C  0.40533595  0.00552216  0.60829485     0.97900
O941        O  0.38741601  0.97961600  0.61781012    -0.82700
O942        O  0.36776430  0.91092242  0.63306340    -0.85300
C943        C  0.37180500  0.90667334  0.66470999     1.02400
O944        O  0.40123039  0.91186886  0.67808902    -0.78100
O945        O  0.47196095  0.92550931  0.68583132    -0.78200
C946        C  0.47394594  0.95885215  0.68935722     1.02300
Cr947      Cr  0.47148337  0.96187568  0.61862076     1.93700
Cr948      Cr  0.39995252  0.93423556  0.59816927     1.93200
Cr949      Cr  0.44244328  0.89645396  0.65261545     1.39100
O950        O  0.43762022  0.93113639  0.62367829    -1.23300
O951        O  0.98374717  0.05864725  0.87978279    -0.85600
O952        O  0.01529433  0.04120430  0.82357004    -0.82600
C953        C  0.03586262  0.03188226  0.80104407     0.97900
O954        O  0.06873632  0.03057929  0.80737657    -0.82700
O955        O  0.08289638  0.09831395  0.82407251    -0.85300
C956        C  0.08610601  0.12678419  0.83939033     1.02400
O957        O  0.07850130  0.12882181  0.87065512    -0.78100
O958        O  0.00990812  0.10905200  0.87445987    -0.78300
C959        C  0.98345142  0.09019018  0.86942073     1.02400
O960        O  0.03092235  0.01070195  0.91497036    -0.85600
O961        O  0.05784432  0.98649243  0.85468105    -0.82600
C962        C  0.09114524  0.98458946  0.85799190     0.97900
O963        O  0.10772332  0.01089488  0.86815310    -0.82700
O964        O  0.12653868  0.07936831  0.88070090    -0.85300
C965        C  0.12291538  0.08559079  0.91209970     1.02400
O966        O  0.09332646  0.08212092  0.92595694    -0.78100
O967        O  0.02304749  0.06399139  0.93456906    -0.78200
C968        C  0.02223816  0.03053169  0.93877391     1.02300
Cr969      Cr  0.02415253  0.02596126  0.86885817     1.93700
Cr970      Cr  0.09431569  0.05492965  0.84685833     1.93200
Cr971      Cr  0.05111073  0.09367636  0.90003014     1.39100
O972        O  0.05706885  0.05794987  0.87262065    -1.23300
O973        O  0.17999628  0.73177711  0.75538054    -0.85600
O974        O  0.20069157  0.76374830  0.70000027    -0.82600
C975        C  0.21342309  0.78373715  0.67852358     0.97900
O976        O  0.21649646  0.81633594  0.68546509    -0.82700
O977        O  0.14886757  0.83666785  0.70107593    -0.85300
C978        C  0.11974169  0.83949874  0.71568758     1.02400
O979        O  0.11678398  0.83066951  0.74663983    -0.78100
O980        O  0.13167222  0.76117154  0.74885534    -0.78300
C981        C  0.14905794  0.73385747  0.74367395     1.02400
O982        O  0.23056168  0.77412049  0.79240785    -0.85600
O983        O  0.25796675  0.80017732  0.73334875    -0.82600
C984        C  0.26331819  0.83285707  0.73759792     0.97900
O985        O  0.23823050  0.85167015  0.74736636    -0.82700
O986        O  0.17014292  0.87524253  0.75961540    -0.85300
C987        C  0.16214625  0.87039809  0.79049328     1.02400
O988        O  0.16409847  0.84034255  0.80327294    -0.78100
O989        O  0.17637753  0.76972361  0.81105326    -0.78200
C990        C  0.20973410  0.76753654  0.81612315     1.02300
Cr991      Cr  0.21572345  0.76969317  0.74583368     1.93700
Cr992      Cr  0.19306373  0.84267143  0.72515612     1.93200
Cr993      Cr  0.14953870  0.80033672  0.77607594     1.39100
O994        O  0.18629712  0.80477170  0.74963156    -1.23300
O995        O  0.98252590  0.88079438  0.62629647    -0.85600
O996        O  0.91330976  0.86293348  0.63171414    -0.82600
C997        C  0.90592157  0.86612245  0.66303875     0.97900
O998        O  0.91011136  0.89506360  0.67729121    -0.82700
O999        O  0.92456539  0.96349830  0.69150160    -0.85300
C1000       C  0.95736131  0.96174590  0.69788132     1.02400
O1001       O  0.97740914  0.94991729  0.67603546    -0.78100
O1002       O  0.00940372  0.93071946  0.62044847    -0.78300
C1003       C  0.00929737  0.89930923  0.63123498     1.02400
O1004       O  0.96940072  0.92494171  0.56503639    -0.85600
O1005       O  0.89923616  0.90906199  0.57512383    -0.82600
C1006       C  0.86977787  0.90560589  0.58907547     0.97900
O1007       O  0.86613513  0.91231715  0.62032024    -0.82700
O1008       O  0.88640113  0.98076478  0.62965771    -0.85300
C1009       C  0.90300208  0.00716764  0.63944496     1.02400
O1010       O  0.93627212  0.00484678  0.64313276    -0.78100
O1011       O  0.96333401  0.97872938  0.58401602    -0.78200
C1012       C  0.97082130  0.95833929  0.56029431     1.02300
Cr1013     Cr  0.94122615  0.89665607  0.60081887     1.93700
Cr1014     Cr  0.89890708  0.93764406  0.65297130     1.93200
Cr1015     Cr  0.96951961  0.96441607  0.63039198     1.39100
O1016       O  0.93610914  0.93308012  0.62734085    -1.23300
O1017       O  0.85677324  0.22877425  0.75338947    -0.85600
O1018       O  0.87558026  0.16029728  0.75642362    -0.82600
C1019       C  0.87291229  0.15204591  0.78753212     0.97900
O1020       O  0.84381691  0.15467140  0.80210365    -0.82700
O1021       O  0.77479384  0.16856825  0.81694128    -0.85300
C1022       C  0.77589650  0.20124049  0.82409912     1.02400
O1023       O  0.78626825  0.22233802  0.80249684    -0.78100
O1024       O  0.80662878  0.25538322  0.74835831    -0.78300
C1025       C  0.83804880  0.25501566  0.75937611     1.02400
O1026       O  0.81340245  0.21787337  0.69196267    -0.85600
O1027       O  0.82969053  0.14791632  0.69943841    -0.82600
C1028       C  0.83336106  0.11812528  0.71240079     0.97900
O1029       O  0.82655010  0.11308596  0.74350575    -0.82700
O1030       O  0.75753482  0.13131506  0.75444259    -0.85300
C1031       C  0.73071505  0.14794702  0.76327154     1.02400
O1032       O  0.73283687  0.18099714  0.76790744    -0.78100
O1033       O  0.75945998  0.20930426  0.70996262    -0.78200
C1034       C  0.78011615  0.21737062  0.68667411     1.02300
Cr1035     Cr  0.84153733  0.18871134  0.72666759     1.93700
Cr1036     Cr  0.80088919  0.14414850  0.77759338     1.93200
Cr1037     Cr  0.77300987  0.21493449  0.75655639     1.39100
O1038       O  0.80499492  0.18218575  0.75305325    -1.23300
O1039       O  0.13249963  0.26114777  0.75095576    -0.85600
O1040       O  0.11681886  0.33069401  0.75661114    -0.82600
C1041       C  0.11987082  0.33790656  0.78799577     0.97900
O1042       O  0.14864674  0.33265017  0.80235562    -0.82700
O1043       O  0.21672497  0.31573277  0.81719138    -0.85300
C1044       C  0.21494889  0.28303997  0.82396987     1.02400
O1045       O  0.20380065  0.26219998  0.80230860    -0.78100
O1046       O  0.18173035  0.23273730  0.74559690    -0.78300
C1047       C  0.15010655  0.23389595  0.75592984     1.02400
O1048       O  0.17697979  0.27243525  0.69041463    -0.85600
O1049       O  0.16391970  0.34285253  0.70019501    -0.82600
C1050       C  0.16096054  0.37226548  0.71410056     0.97900
O1051       O  0.16797422  0.37575282  0.74534304    -0.82700
O1052       O  0.23610990  0.35297526  0.75549952    -0.85300
C1053       C  0.26171997  0.33588777  0.76647959     1.02400
O1054       O  0.25872848  0.30266467  0.76930623    -0.78100
O1055       O  0.23096980  0.27756251  0.70933821    -0.78200
C1056       C  0.21032028  0.27028328  0.68566866     1.02300
Cr1057     Cr  0.14988943  0.30160924  0.72599093     1.93700
Cr1058     Cr  0.19207077  0.34222262  0.77840941     1.93200
Cr1059     Cr  0.21707867  0.27095301  0.75595629     1.39100
O1060       O  0.18639332  0.30516630  0.75307011    -1.23300
O1061       O  0.00790157  0.60967953  0.62506001    -0.85600
O1062       O  0.07725331  0.62720417  0.63175100    -0.82600
C1063       C  0.08291691  0.62492483  0.66342317     0.97900
O1064       O  0.07543326  0.59706138  0.67830476    -0.82700
O1065       O  0.06209818  0.52848523  0.69442491    -0.85300
C1066       C  0.02898784  0.52893865  0.69927354     1.02400
O1067       O  0.00977031  0.54034392  0.67662854    -0.78100
O1068       O  0.98086505  0.55974884  0.62017286    -0.78300
C1069       C  0.98137041  0.59122247  0.63095624     1.02400
O1070       O  0.02185656  0.56442306  0.56563540    -0.85600
O1071       O  0.09213644  0.57928000  0.57735685    -0.82600
C1072       C  0.12094134  0.58327118  0.59240109     0.97900
O1073       O  0.12326187  0.57801299  0.62407078    -0.82700
O1074       O  0.10402954  0.50990602  0.63599302    -0.85300
C1075       C  0.08664574  0.48339951  0.64441510     1.02400
O1076       O  0.05310348  0.48543764  0.64582485    -0.78100
O1077       O  0.02786385  0.51083947  0.58504703    -0.78200
C1078       C  0.02091853  0.53106677  0.56098407     1.02300
Cr1079     Cr  0.04955707  0.59288457  0.60129197     1.93700
Cr1080     Cr  0.08918018  0.55372802  0.65647834     1.93200
Cr1081     Cr  0.01999474  0.52562222  0.63134850     1.39100
O1082       O  0.05345690  0.55695172  0.62888966    -1.23300
O1083       O  0.00731311  0.43047907  0.87957291    -0.85600
O1084       O  0.97342177  0.44694130  0.82423301    -0.82600
C1085       C  0.95224957  0.45600433  0.80210840     0.97900
O1086       O  0.91954915  0.45738555  0.80923355    -0.82700
O1087       O  0.90437036  0.39007360  0.82764261    -0.85300
C1088       C  0.90228855  0.36175636  0.84342757     1.02400
O1089       O  0.91220089  0.36001649  0.87406074    -0.78100
O1090       O  0.98114210  0.38021371  0.87402862    -0.78300
C1091       C  0.00738724  0.39924957  0.86849492     1.02400
O1092       O  0.96147569  0.47893625  0.91574886    -0.85600
O1093       O  0.93308733  0.50233275  0.85574116    -0.82600
C1094       C  0.90001115  0.50508724  0.85980838     0.97900
O1095       O  0.88288282  0.47921641  0.87033304    -0.82700
O1096       O  0.86422232  0.41097850  0.88569950    -0.85300
C1097       C  0.86960993  0.40413355  0.91675136     1.02400
O1098       O  0.89990024  0.40681423  0.92930700    -0.78100
O1099       O  0.97010475  0.42563725  0.93515874    -0.78200
C1100       C  0.97050971  0.45912465  0.93948423     1.02300
Cr1101     Cr  0.96655319  0.46295749  0.86950839     1.93700
Cr1102     Cr  0.89511716  0.43425266  0.85003346     1.93200
Cr1103     Cr  0.94092477  0.39551508  0.90166988     1.39100
O1104       O  0.93348941  0.43123071  0.87454490    -1.23300
O1105       O  0.36151146  0.72914084  0.00271888    -0.85600
O1106       O  0.37882993  0.65963423  0.50390839    -0.82600
C1107       C  0.37806923  0.65208995  0.53523575     0.97900
O1108       O  0.35002226  0.65481174  0.55153006    -0.82700
O1109       O  0.28274110  0.67153695  0.57038429    -0.85300
C1110       C  0.28482614  0.70422937  0.57701932     1.02400
O1111       O  0.29478117  0.72480323  0.55467107    -0.78100
O1112       O  0.31181205  0.75666991  0.49807718    -0.78300
C1113       C  0.34354209  0.75614334  0.50792653     1.02400
O1114       O  0.31422289  0.71903914  0.94336354    -0.85600
O1115       O  0.32929934  0.64896202  0.94946547    -0.82600
C1116       C  0.33255824  0.61891008  0.96197757     0.97900
O1117       O  0.32701702  0.61360950  0.99325497    -0.82700
O1118       O  0.25900457  0.63463074  0.51040507    -0.85300
C1119       C  0.23373187  0.65267695  0.52099076     1.02400
O1120       O  0.23760723  0.68569445  0.52422717    -0.78100
O1121       O  0.26096370  0.71213059  0.96367774    -0.78200
C1122       C  0.28071017  0.71993351  0.93938559     1.02300
Cr1123     Cr  0.34379652  0.68919938  0.97631898     1.93700
Cr1124     Cr  0.30486876  0.64595871  0.52983609     1.93200
Cr1125     Cr  0.27793506  0.71764463  0.50941841     1.39100
O1126       O  0.30851735  0.68367349  0.50452628    -1.23300
O1127       O  0.67855676  0.22846370  0.00866327    -0.85600
O1128       O  0.69905922  0.25827193  0.95218417    -0.82600
C1129       C  0.70907163  0.27878760  0.92979732     0.97900
O1130       O  0.71080794  0.31159631  0.93606069    -0.82700
O1131       O  0.64308497  0.32754879  0.95212452    -0.85300
C1132       C  0.61478886  0.33296171  0.96728173     1.02400
O1133       O  0.61230795  0.32576694  0.99861599    -0.78100
O1134       O  0.63027603  0.25453094  0.50277455    -0.78300
C1135       C  0.64659820  0.22892331  0.99902142     1.02400
O1136       O  0.72819977  0.27593772  0.54458095    -0.85600
O1137       O  0.75415190  0.29974773  0.98402999    -0.82600
C1138       C  0.75730106  0.33291372  0.98732621     0.97900
O1139       O  0.73116885  0.35044496  0.99648976    -0.82700
O1140       O  0.66175413  0.37022319  0.50818767    -0.85300
C1141       C  0.65555032  0.36641941  0.53956036     1.02400
O1142       O  0.65910843  0.33707020  0.55341081    -0.78100
O1143       O  0.67437142  0.26745492  0.56295815    -0.78200
C1144       C  0.70764016  0.26841699  0.56816697     1.02300
Cr1145     Cr  0.71322162  0.26748597  0.99784378     1.93700
Cr1146     Cr  0.68678142  0.33807668  0.97499127     1.93200
Cr1147     Cr  0.64612802  0.29560437  0.52776921     1.39100
O1148       O  0.68237113  0.30067406  0.50069633    -1.23300
O1149       O  0.48418704  0.38293840  0.87726861    -0.85600
O1150       O  0.41555934  0.36519258  0.88104111    -0.82600
C1151       C  0.40841921  0.36709713  0.91242209     0.97900
O1152       O  0.41060702  0.39583360  0.92765669    -0.82700
O1153       O  0.42555819  0.46469133  0.94309933    -0.85300
C1154       C  0.45812210  0.46308557  0.95048934     1.02400
O1155       O  0.47962409  0.45262786  0.92916808    -0.78100
O1156       O  0.51192767  0.43269677  0.87342411    -0.78300
C1157       C  0.51083868  0.40106910  0.88339506     1.02400
O1158       O  0.47326817  0.42778254  0.81708469    -0.85600
O1159       O  0.40270617  0.41205687  0.82503901    -0.82600
C1160       C  0.37319759  0.40782484  0.83861610     0.97900
O1161       O  0.36885612  0.41480983  0.86975075    -0.82700
O1162       O  0.38896238  0.48361355  0.88133363    -0.85300
C1163       C  0.40622121  0.50990572  0.89081197     1.02400
O1164       O  0.43927808  0.50694103  0.89521314    -0.78100
O1165       O  0.46711514  0.48127719  0.83646527    -0.78200
C1166       C  0.47505582  0.46112006  0.81270853     1.02300
Cr1167     Cr  0.44397876  0.39939445  0.85151010     1.93700
Cr1168     Cr  0.40074934  0.43952599  0.90373059     1.93200
Cr1169     Cr  0.47230434  0.46658444  0.88294947     1.39100
O1170       O  0.43865523  0.43531599  0.87887509    -1.23300
O1171       O  0.31408436  0.26008840  0.00470861    -0.85600
O1172       O  0.29650735  0.22773429  0.94778569    -0.82600
C1173       C  0.28661349  0.20618330  0.92620110     0.97900
O1174       O  0.28478001  0.17372851  0.93374093    -0.82700
O1175       O  0.35231704  0.15806146  0.95291532    -0.85300
C1176       C  0.38024859  0.15510926  0.96934474     1.02400
O1177       O  0.38116579  0.16281060  0.00057115    -0.78100
O1178       O  0.36338634  0.23219043  0.50240406    -0.78300
C1179       C  0.34643539  0.25973117  0.99680960     1.02400
O1180       O  0.26229394  0.21549736  0.53839225    -0.85600
O1181       O  0.23981259  0.18841188  0.97963637    -0.82600
C1182       C  0.23589324  0.15346510  0.48285548     0.97900
O1183       O  0.26153120  0.13745050  0.99386597    -0.82700
O1184       O  0.32940981  0.11591849  0.50956682    -0.85300
C1185       C  0.33453709  0.12040757  0.54100452     1.02400
O1186       O  0.33114579  0.15031690  0.55399700    -0.78100
O1187       O  0.31513970  0.22083908  0.56017942    -0.78200
C1188       C  0.28161043  0.22261016  0.56314475     1.02300
Cr1189     Cr  0.28031503  0.22077642  0.99368522     1.93700
Cr1190     Cr  0.30729942  0.14884443  0.97437537     1.93200
Cr1191     Cr  0.34517304  0.19149884  0.52761306     1.39100
O1192       O  0.31039837  0.18569814  0.49869383    -1.23300
O1193       O  0.50936029  0.10786071  0.87785767    -0.85600
O1194       O  0.57858931  0.12519744  0.88080188    -0.82600
C1195       C  0.58693967  0.12292996  0.91192931     0.97900
O1196       O  0.58510770  0.09420272  0.92707223    -0.82700
O1197       O  0.56983631  0.02593577  0.94322917    -0.85300
C1198       C  0.53736406  0.02716232  0.95130232     1.02400
O1199       O  0.51540164  0.03783481  0.93047305    -0.78100
O1200       O  0.48187326  0.05766594  0.87515594    -0.78300
C1201       C  0.48253786  0.08982003  0.88363020     1.02400
O1202       O  0.51957593  0.06274300  0.81796856    -0.85600
O1203       O  0.58935574  0.07747140  0.82445880    -0.82600
C1204       C  0.61963769  0.08022467  0.83651204     0.97900
O1205       O  0.62496660  0.07488046  0.86780749    -0.82700
O1206       O  0.60469034  0.00708640  0.87998774    -0.85300
C1207       C  0.58823378  0.98122306  0.89119534     1.02400
O1208       O  0.55519746  0.98363042  0.89593741    -0.78100
O1209       O  0.52636763  0.00931375  0.83735163    -0.78200
C1210       C  0.51888122  0.02943859  0.81338341     1.02300
Cr1211     Cr  0.54929046  0.09105181  0.85186814     1.93700
Cr1212     Cr  0.59385127  0.05083255  0.90295115     1.93200
Cr1213     Cr  0.52179799  0.02391415  0.88401274     1.39100
O1214       O  0.55514468  0.05532229  0.87932914    -1.23300
O1215       O  0.63181218  0.75799892  0.99870417    -0.85600
O1216       O  0.61173426  0.82592805  0.50208581    -0.82600
C1217       C  0.61220758  0.83182046  0.53378208     0.97900
O1218       O  0.64007214  0.82817104  0.55014854    -0.82700
O1219       O  0.70862833  0.81468994  0.56844820    -0.85300
C1220       C  0.70896955  0.78163215  0.57351508     1.02400
O1221       O  0.69683706  0.76188936  0.55164201    -0.78100
O1222       O  0.68119875  0.73107655  0.49425640    -0.78300
C1223       C  0.64924030  0.73092488  0.50353134     1.02400
O1224       O  0.67880173  0.77064577  0.94021251    -0.85600
O1225       O  0.66295856  0.84021512  0.94886753    -0.82600
C1226       C  0.65782900  0.86945387  0.96242517     0.97900
O1227       O  0.66210568  0.87334955  0.99413406    -0.82700
O1228       O  0.72916144  0.85439548  0.50897969    -0.85300
C1229       C  0.75519010  0.83746246  0.51932644     1.02400
O1230       O  0.75310864  0.80418766  0.52200744    -0.78100
O1231       O  0.73165065  0.77944869  0.96080914    -0.78200
C1232       C  0.71231246  0.77139967  0.93647081     1.02300
Cr1233     Cr  0.64864681  0.79886935  0.97396617     1.93700
Cr1234     Cr  0.68445065  0.84042827  0.52880380     1.93200
Cr1235     Cr  0.71393967  0.77076209  0.50680996     1.39100
O1236       O  0.68234909  0.80361274  0.50249079    -1.23300
O1237       O  0.81499775  0.75752381  0.75794664    -0.85600
O1238       O  0.79291894  0.72770474  0.70185113    -0.82600
C1239       C  0.77868915  0.70821938  0.68087551     0.97900
O1240       O  0.77628027  0.67533129  0.68683394    -0.82700
O1241       O  0.84307830  0.65230000  0.70193574    -0.85300
C1242       C  0.87174411  0.64784364  0.71693677     1.02400
O1243       O  0.87524011  0.65694564  0.74768541    -0.78100
O1244       O  0.86267218  0.72730489  0.75067932    -0.78300
C1245       C  0.84585641  0.75514131  0.74595867     1.02400
O1246       O  0.76358719  0.71499674  0.79415256    -0.85600
O1247       O  0.73515633  0.69145402  0.73450561    -0.82600
C1248       C  0.72940479  0.65879289  0.73842806     0.97900
O1249       O  0.75378994  0.63962486  0.74883415    -0.82700
O1250       O  0.82070691  0.61361532  0.75981162    -0.85300
C1251       C  0.82876150  0.61775048  0.79072306     1.02400
O1252       O  0.82825588  0.64774025  0.80387782    -0.78100
O1253       O  0.81803208  0.71849722  0.81249198    -0.78200
C1254       C  0.78478820  0.72021074  0.81781661     1.02300
Cr1255     Cr  0.77821134  0.72072882  0.74772380     1.93700
Cr1256     Cr  0.79888147  0.64748600  0.72601260     1.93200
Cr1257     Cr  0.84379979  0.68789157  0.77725239     1.39100
O1258       O  0.80694258  0.68491448  0.75072686    -1.15300
O1259       O  0.48517895  0.55838660  0.62883600    -0.85600
O1260       O  0.51716395  0.53795342  0.57300819    -0.82600
C1261       C  0.53848770  0.52722973  0.55161811     0.97900
O1262       O  0.57096330  0.52470513  0.55899393    -0.82700
O1263       O  0.58640852  0.59260536  0.57292285    -0.85300
C1264       C  0.58895532  0.62187192  0.58699156     1.02400
O1265       O  0.58175631  0.62509993  0.61832308    -0.78100
O1266       O  0.51251693  0.60842222  0.62455590    -0.78300
C1267       C  0.48547916  0.59028681  0.61960408     1.02400
O1268       O  0.53063751  0.51051157  0.66586309    -0.85600
O1269       O  0.55720908  0.48366800  0.60714227    -0.82600
C1270       C  0.59031371  0.48073504  0.61104007     0.97900
O1271       O  0.60761466  0.50662573  0.62121897    -0.82700
O1272       O  0.62899184  0.57564369  0.63018846    -0.85300
C1273       C  0.62551909  0.58257848  0.66136513     1.02400
O1274       O  0.59606868  0.57882852  0.67525922    -0.78100
O1275       O  0.52565896  0.56426547  0.68498845    -0.78200
C1276       C  0.52410385  0.53099701  0.68977204     1.02300
Cr1277     Cr  0.52471830  0.52443896  0.61930977     1.93700
Cr1278     Cr  0.59630869  0.55011218  0.59766550     1.93200
Cr1279     Cr  0.55399316  0.59183696  0.64937621     1.39100
O1280       O  0.55855434  0.55547936  0.62253326    -1.23300
C1281       C  0.69933279  0.64153003  0.72146369    -0.00400
C1282       C  0.69474450  0.64902713  0.68717638    -0.12300
C1283       C  0.67383095  0.62780002  0.66659544     0.01800
C1284       C  0.65391833  0.60018693  0.68077371    -0.00500
C1285       C  0.65760659  0.59321595  0.71540300    -0.12200
C1286       C  0.68123876  0.61256971  0.73537960     0.01700
H1287       H  0.70948401  0.67024284  0.67572085     0.14700
H1288       H  0.64254016  0.57209639  0.72670601     0.14700
C1289       C  0.68687664  0.60177603  0.76976450     0.36400
C1290       C  0.67451588  0.63461778  0.63090217     0.36300
N1291       N  0.69145357  0.59251087  0.79715459    -0.44000
N1292       N  0.67654503  0.64006851  0.60233297    -0.44000
C1293       C  0.63403773  0.70235265  0.52407949    -0.00400
C1294       C  0.61046500  0.71159848  0.55007584    -0.12300
C1295       C  0.59566614  0.68619972  0.57129626     0.01800
C1296       C  0.60388653  0.65064924  0.56629826    -0.00500
C1297       C  0.62731524  0.64146778  0.54006582    -0.12200
C1298       C  0.64270607  0.66691277  0.51938027     0.01700
H1299       H  0.60389404  0.73896855  0.55417021     0.14700
H1300       H  0.63422181  0.61418204  0.53599930     0.14700
C1301       C  0.66667672  0.65656996  0.99313460     0.36400
C1302       C  0.57140087  0.69717658  0.59716412     0.36300
N1303       N  0.68491839  0.64765464  0.97144032    -0.44000
N1304       N  0.55190119  0.70589588  0.61790081    -0.44000
C1305       C  0.73028665  0.75972572  0.90514121    -0.00400
C1306       C  0.71851577  0.72932734  0.88891063    -0.12300
C1307       C  0.73762959  0.71468411  0.86218401     0.01800
C1308       C  0.76905043  0.73074797  0.85058265    -0.00500
C1309       C  0.78122600  0.76084181  0.86714730    -0.12200
C1310       C  0.76227997  0.77533800  0.89419329     0.01700
H1311       H  0.69491880  0.71628139  0.89783840     0.14700
H1312       H  0.80475488  0.77389612  0.85808722     0.14700
C1313       C  0.77571636  0.80700080  0.90955890     0.36400
C1314       C  0.72481184  0.68247119  0.84753257     0.36300
N1315       N  0.78650634  0.83235779  0.92185535    -0.44000
N1316       N  0.71460133  0.65656029  0.83593113    -0.44000
C1317       C  0.75989840  0.72614577  0.65349481    -0.00400
C1318       C  0.76384679  0.71471705  0.62048873    -0.12300
C1319       C  0.74881447  0.73371855  0.59412529     0.01800
C1320       C  0.72847488  0.76435021  0.60085550    -0.00500
C1321       C  0.72484354  0.77599865  0.63384176    -0.12200
C1322       C  0.74020206  0.75718780  0.66018544     0.01700
H1323       H  0.77958851  0.69162923  0.61522965     0.14700
H1324       H  0.70916635  0.79912724  0.63911314     0.14700
C1325       C  0.73438575  0.76996512  0.69400671     0.36400
C1326       C  0.75580024  0.72168886  0.56024272     0.36300
N1327       N  0.72974529  0.78034818  0.72102382    -0.44000
N1328       N  0.76143088  0.71205268  0.53314277    -0.44000
C1329       C  0.64204765  0.89737450  0.94161419    -0.00400
C1330       C  0.65480747  0.93161840  0.94405715    -0.12300
C1331       C  0.63872684  0.95889577  0.92625827     0.01800
C1332       C  0.60862265  0.95210207  0.90602235    -0.00500
C1333       C  0.59618240  0.91773776  0.90323125    -0.12200
C1334       C  0.61290757  0.89031348  0.92031443     0.01700
H1335       H  0.67706995  0.93712991  0.96030934     0.14700
H1336       H  0.57307722  0.91240114  0.88804578     0.14700
C1337       C  0.59844742  0.85544192  0.91669597     0.36400
C1338       C  0.65258219  0.99387929  0.93104575     0.36300
N1339       N  0.58686044  0.82753562  0.91356175    -0.44000
N1340       N  0.66383191  0.02181471  0.93497240    -0.44000
C1341       C  0.41023162  0.13967135  0.95124067    -0.00400
C1342       C  0.42371248  0.15834586  0.92370835    -0.12300
C1343       C  0.44565152  0.14206113  0.90012465     0.01800
C1344       C  0.45412490  0.10611145  0.90357952    -0.00500
C1345       C  0.44020176  0.08730168  0.93080174    -0.12200
C1346       C  0.41851946  0.10368409  0.95456694     0.01700
H1347       H  0.41604348  0.18549945  0.91999983     0.14700
H1348       H  0.44700402  0.05987309  0.93406673     0.14700
C1349       C  0.40411734  0.08221393  0.98107721     0.36400
C1350       C  0.45801905  0.16252557  0.87189682     0.36300
N1351       N  0.39324088  0.06367597  0.00164817    -0.44000
N1352       N  0.46777050  0.17896720  0.84924207    -0.44000
C1353       C  0.48804429  0.47810707  0.78088395    -0.00400
C1354       C  0.48993699  0.51526796  0.77955732    -0.12300
C1355       C  0.50238749  0.53326896  0.75103735     0.01800
C1356       C  0.51280725  0.51428882  0.72227751    -0.00500
C1357       C  0.51153285  0.47715735  0.72386844    -0.12200
C1358       C  0.49965923  0.45916330  0.75253241     0.01700
H1359       H  0.48187606  0.53072657  0.80112612     0.14700
H1360       H  0.51987701  0.46163714  0.70243842     0.14700
C1361       C  0.50025923  0.42129831  0.75195222     0.36400
C1362       C  0.50459214  0.57107196  0.75244815     0.36300
N1363       N  0.50103681  0.39094512  0.75130598    -0.44000
N1364       N  0.50657257  0.60135257  0.75382160    -0.44000
C1365       C  0.47385631  0.47883742  0.98056175    -0.00400
C1366       C  0.47399830  0.51556487  0.98271993    -0.12300
C1367       C  0.49780955  0.53125941  0.50291784     0.01800
C1368       C  0.52260145  0.51177870  0.52162585    -0.00500
C1369       C  0.52208647  0.47506060  0.51990200    -0.12200
C1370       C  0.49720038  0.45774599  0.50001206     0.01700
H1371       H  0.45608950  0.53074298  0.96727968     0.14700
H1372       H  0.53947403  0.45987380  0.53589877     0.14700
C1373       C  0.49583750  0.41991807  0.50075790     0.36400
C1374       C  0.49678215  0.56911818  0.50473644     0.36300
N1375       N  0.49412097  0.38964207  0.50199894    -0.44000
N1376       N  0.49637443  0.60103190  0.00729899    -0.44000
C1377       C  0.39356620  0.33725331  0.93152408    -0.00400
C1378       C  0.41394535  0.32138663  0.95672944    -0.12300
C1379       C  0.39899367  0.29719105  0.97933879     0.01800
C1380       C  0.36267597  0.28902358  0.97742244    -0.00500
C1381       C  0.34220934  0.30594160  0.95293809    -0.12200
C1382       C  0.35722486  0.32970787  0.93014585     0.01700
H1383       H  0.44147765  0.32843932  0.95916622     0.14700
H1384       H  0.31500734  0.29638214  0.44706788     0.14700
C1385       C  0.33424087  0.34666236  0.90629139     0.36400
C1386       C  0.42122951  0.28226401  0.00507104     0.36300
N1387       N  0.31493540  0.35980511  0.88766865    -0.44000
N1388       N  0.43912212  0.27051161  0.02575773    -0.44000
C1389       C  0.58715289  0.35162742  0.94801891    -0.00400
C1390       C  0.59820667  0.37612586  0.92344328    -0.12300
C1391       C  0.57413438  0.39334073  0.90251261     0.01800
C1392       C  0.53820123  0.38532223  0.90516856    -0.00500
C1393       C  0.52707463  0.36150205  0.93024605    -0.12200
C1394       C  0.55103246  0.34530027  0.95203330     0.01700
H1395       H  0.62597382  0.38196436  0.92055405     0.14700
H1396       H  0.49926956  0.35594489  0.93330608     0.14700
C1397       C  0.53772614  0.32262759  0.97815956     0.36400
C1398       C  0.58709601  0.41816941  0.87801690     0.36300
N1399       N  0.52637618  0.30435613  0.49883364    -0.44000
N1400       N  0.59751476  0.43817409  0.85848164    -0.44000
C1401       C  0.63998493  0.39497709  0.55959035    -0.00400
C1402       C  0.65530639  0.42822054  0.55884718    -0.12300
C1403       C  0.64054230  0.45597956  0.57698107     0.01800
C1404       C  0.60942321  0.45067037  0.59620843    -0.00500
C1405       C  0.59410482  0.41726869  0.59686894    -0.12200
C1406       C  0.60916579  0.38942573  0.57897563     0.01700
H1407       H  0.67869956  0.43258434  0.54375831     0.14700
H1408       H  0.56985661  0.41313463  0.61071765     0.14700
C1409       C  0.59118052  0.35598464  0.57927298     0.36400
C1410       C  0.65667746  0.49010859  0.57320634     0.36300
N1411       N  0.57665679  0.32927398  0.57946270    -0.44000
N1412       N  0.66960327  0.51741578  0.56998438    -0.44000
C1413       C  0.63056413  0.19967282  0.97930485    -0.00400
C1414       C  0.65259134  0.17622335  0.96213309    -0.12300
C1415       C  0.63879746  0.15206173  0.93899980     0.01800
C1416       C  0.60251621  0.15222395  0.93110377    -0.00500
C1417       C  0.58026525  0.17474924  0.94889321    -0.12200
C1418       C  0.59373981  0.19774175  0.97330682     0.01700
H1419       H  0.68405322  0.17746727  0.46458454     0.14700
H1420       H  0.55206736  0.17300962  0.94501586     0.14700
C1421       C  0.56879864  0.21717611  0.99334168     0.36400
C1422       C  0.66215768  0.12589917  0.92525424     0.36300
N1423       N  0.54862513  0.23207543  0.00977815    -0.44000
N1424       N  0.68095448  0.10456438  0.91500809    -0.44000
C1425       C  0.34942726  0.59199210  0.94099174    -0.00400
C1426       C  0.38432632  0.59788762  0.93088783    -0.12300
C1427       C  0.40298962  0.57274534  0.91246929     0.01800
C1428       C  0.38642049  0.54086714  0.90352186    -0.00500
C1429       C  0.35054055  0.53628883  0.91183532    -0.12200
C1430       C  0.33211689  0.56137447  0.93056455     0.01700
H1431       H  0.39748121  0.62210418  0.93832382     0.14700
H1432       H  0.33697803  0.51212043  0.90504834     0.14700
C1433       C  0.29557717  0.55543634  0.93857273     0.36400
C1434       C  0.43896440  0.58033500  0.90340571     0.36300
N1435       N  0.26812263  0.54666379  0.45366466    -0.44000
N1436       N  0.46775726  0.58669553  0.89616316    -0.44000
C1437       C  0.40852422  0.63722367  0.55357199    -0.00400
C1438       C  0.42326869  0.65694148  0.57987450    -0.12300
C1439       C  0.44702664  0.64180805  0.60271834     0.01800
C1440       C  0.45606556  0.60590714  0.59995384    -0.00500
C1441       C  0.44052789  0.58595435  0.57419998    -0.12200
C1442       C  0.41704755  0.60120552  0.55114660     0.01700
H1443       H  0.41545170  0.68411218  0.58309861     0.14700
H1444       H  0.44740018  0.55848315  0.57149161     0.14700
C1445       C  0.40114093  0.57880281  0.52611878     0.36400
C1446       C  0.46054242  0.66335467  0.62968019     0.36300
N1447       N  0.38873530  0.56010071  0.50647745    -0.44000
N1448       N  0.47114887  0.68063917  0.65138477    -0.44000
C1449       C  0.88030101  0.53527711  0.84580348    -0.00400
C1450       C  0.84847266  0.52831385  0.82873250    -0.12300
C1451       C  0.83090875  0.55459275  0.81066518     0.01800
C1452       C  0.84446030  0.58890687  0.81050829    -0.00500
C1453       C  0.87555942  0.59615752  0.82850499    -0.12200
C1454       C  0.89379283  0.56966517  0.84556385     0.01700
H1455       H  0.83806599  0.50180582  0.82814186     0.14700
H1456       H  0.88642348  0.62249726  0.82821594     0.14700
C1457       C  0.92619366  0.57846682  0.86251961     0.36400
C1458       C  0.79920060  0.54574275  0.79254952     0.36300
N1459       N  0.95218430  0.58559164  0.87605849    -0.44000
N1460       N  0.77381698  0.53863062  0.77798251    -0.44000
C1461       C  0.78821810  0.35245893  0.97391025    -0.00400
C1462       C  0.78218290  0.38594512  0.95971066    -0.12300
C1463       C  0.80830204  0.40356215  0.94141456     0.01800
C1464       C  0.84160203  0.38819971  0.93764485    -0.00500
C1465       C  0.84841856  0.35574561  0.95333796    -0.12200
C1466       C  0.82206361  0.33772801  0.97114013     0.01700
H1467       H  0.75635782  0.39784821  0.96145347     0.14700
H1468       H  0.87420598  0.34389165  0.95079445     0.14700
C1469       C  0.83108014  0.31003513  0.49099723     0.36400
C1470       C  0.80040886  0.43741106  0.92696151     0.36300
N1471       N  0.83872077  0.28471064  0.50530262    -0.44000
N1472       N  0.79409421  0.46461824  0.91552693    -0.44000
C1473       C  0.90047989  0.63081985  0.69785470    -0.00400
C1474       C  0.93363262  0.64632964  0.69750427    -0.12300
C1475       C  0.95948284  0.63503518  0.67492172     0.01800
C1476       C  0.95319761  0.60579946  0.65322443    -0.00500
C1477       C  0.92045849  0.58889835  0.65526801    -0.12200
C1478       C  0.89404978  0.60145293  0.67685074     0.01700
H1479       H  0.93868905  0.66881212  0.71357953     0.14700
H1480       H  0.91525299  0.56612668  0.63967010     0.14700
C1481       C  0.86064380  0.58337070  0.67744592     0.36400
C1482       C  0.99166531  0.65510407  0.67463151     0.36300
N1483       N  0.83381574  0.56901176  0.67803215    -0.44000
N1484       N  0.01676125  0.67227096  0.67474937    -0.44000
C1485       C  0.98332478  0.47659473  0.97118386    -0.00400
C1486       C  0.97482115  0.51231933  0.97679300    -0.12300
C1487       C  0.98914138  0.53113091  0.50389511     0.01800
C1488       C  0.00966245  0.51407571  0.52852403    -0.00500
C1489       C  0.01749798  0.47812669  0.52353800    -0.12200
C1490       C  0.00590053  0.46008035  0.99444529     0.01700
H1491       H  0.95812077  0.52599947  0.95898884     0.14700
H1492       H  0.03373597  0.46442764  0.54171907     0.14700
C1493       C  0.01874129  0.42492296  0.98894276     0.36400
C1494       C  0.98039138  0.56788389  0.50659935     0.36300
N1495       N  0.02933537  0.39688239  0.98427617    -0.44000
N1496       N  0.97351169  0.59738793  0.50866537    -0.44000
C1497       C  0.96866568  0.47015487  0.77120830    -0.00400
C1498       C  0.00487789  0.46305180  0.76655187    -0.12300
C1499       C  0.02590689  0.48361176  0.74560676     0.01800
C1500       C  0.01058037  0.51118461  0.72733255    -0.00500
C1501       C  0.97395780  0.51717850  0.73070489    -0.12200
C1502       C  0.95298360  0.49674694  0.75196400     0.01700
H1503       H  0.01748725  0.44235057  0.78089766     0.14700
H1504       H  0.96130516  0.53767579  0.71612851     0.14700
C1505       C  0.91572468  0.50382269  0.75352292     0.36400
C1506       C  0.06300532  0.47582446  0.74390199     0.36300
N1507       N  0.88580063  0.50925826  0.75430523    -0.44000
N1508       N  0.09275595  0.46955265  0.74319028    -0.44000
C1509       C  0.14990468  0.59974281  0.57348784    -0.00400
C1510       C  0.14367393  0.63269514  0.55873494    -0.12300
C1511       C  0.17007482  0.65035604  0.54085442     0.01800
C1512       C  0.20303646  0.63414881  0.53597369    -0.00500
C1513       C  0.20873615  0.60056646  0.55011295    -0.12200
C1514       C  0.18287436  0.58384083  0.56951938     0.01700
H1515       H  0.11829039  0.64519615  0.56212824     0.14700
H1516       H  0.23422750  0.58809477  0.54768861     0.14700
C1517       C  0.19092764  0.55091362  0.58573912     0.36400
C1518       C  0.16271949  0.68519211  0.52845454     0.36300
N1519       N  0.19739048  0.52471563  0.59910492    -0.44000
N1520       N  0.15673275  0.71323846  0.51887129    -0.44000
C1521       C  0.29108380  0.35548093  0.78281557    -0.00400
C1522       C  0.32411454  0.33965698  0.78652977    -0.12300
C1523       C  0.35115988  0.35656838  0.80434802     0.01800
C1524       C  0.34536235  0.38997756  0.81903172    -0.00500
C1525       C  0.31231720  0.40545183  0.81612058    -0.12200
C1526       C  0.28525958  0.38869210  0.79840613     0.01700
H1527       H  0.32865451  0.31380959  0.77596569     0.14700
H1528       H  0.30750256  0.43057191  0.82812317     0.14700
C1529       C  0.25117726  0.40542096  0.79893177     0.36400
C1530       C  0.38400934  0.33814384  0.80884452     0.36300
N1531       N  0.22387735  0.41879438  0.79966479    -0.44000
N1532       N  0.41019927  0.32319267  0.81256981    -0.44000
C1533       C  0.22693210  0.25737789  0.65365892    -0.00400
C1534       C  0.26225461  0.24576135  0.65514694    -0.12300
C1535       C  0.28052813  0.23431343  0.62650350     0.01800
C1536       C  0.26385708  0.23454534  0.59483995    -0.00500
C1537       C  0.22838117  0.24569773  0.59328526    -0.12200
C1538       C  0.20990649  0.25675219  0.62212105     0.01700
H1539       H  0.27589948  0.24514396  0.67910864     0.14700
H1540       H  0.21480378  0.24595506  0.56928075     0.14700
C1541       C  0.17379091  0.26761873  0.61830611     0.36400
C1542       C  0.31586497  0.22121485  0.63080509     0.36300
N1543       N  0.14478723  0.27611084  0.61497610    -0.44000
N1544       N  0.34409354  0.21051264  0.63436456    -0.44000
C1545       C  0.23176333  0.26676787  0.85346819    -0.00400
C1546       C  0.26814136  0.27128477  0.85742529    -0.12300
C1547       C  0.28753575  0.24883864  0.87831591     0.01800
C1548       C  0.27052102  0.22138774  0.89587637    -0.00500
C1549       C  0.23424800  0.21664940  0.89164552    -0.12200
C1550       C  0.21487340  0.23899529  0.87071436     0.01700
H1551       H  0.28171767  0.29126032  0.84290180     0.14700
H1552       H  0.22065519  0.19668899  0.90618399     0.14700
C1553       C  0.17741519  0.23346351  0.86792820     0.36400
C1554       C  0.32509817  0.25383380  0.88084426     0.36300
N1555       N  0.14736747  0.22909387  0.86606391    -0.44000
N1556       N  0.35524612  0.25758911  0.88262245    -0.44000
C1557       C  0.03622079  0.38537945  0.84697998    -0.00400
C1558       C  0.07111566  0.38849275  0.85744853    -0.12300
C1559       C  0.09851955  0.37350813  0.83864762     0.01800
C1560       C  0.09128318  0.35487454  0.80818703    -0.00500
C1561       C  0.05640640  0.35332910  0.79701242    -0.12200
C1562       C  0.02906840  0.36826885  0.81597036     0.01700
H1563       H  0.07694954  0.40209844  0.88078640     0.14700
H1564       H  0.05036998  0.34020448  0.77348030     0.14700
C1565       C  0.99410075  0.36695129  0.80195232     0.36400
C1566       C  0.13380833  0.37845258  0.85134974     0.36300
N1567       N  0.96648907  0.36590467  0.78978083    -0.44000
N1568       N  0.16205268  0.38235368  0.86156521    -0.44000
C1569       C  0.10650062  0.45342674  0.65913513    -0.00400
C1570       C  0.13847764  0.46098015  0.67586893    -0.12300
C1571       C  0.15668817  0.43523577  0.69405125     0.01800
C1572       C  0.14383632  0.40070336  0.69469615    -0.00500
C1573       C  0.11261641  0.39274468  0.67708927    -0.12200
C1574       C  0.09360012  0.41880963  0.65998841     0.01700
H1575       H  0.14862437  0.48759272  0.67610486     0.14700
H1576       H  0.10236250  0.36616739  0.67765781     0.14700
C1577       C  0.06104537  0.40938585  0.64365854     0.36400
C1578       C  0.18842454  0.44487309  0.71173648     0.36300
N1579       N  0.03486909  0.40189765  0.63063833    -0.44000
N1580       N  0.21383224  0.45269027  0.72592119    -0.44000
C1581       C  0.64740838  0.09422282  0.81426298    -0.00400
C1582       C  0.63953604  0.12380014  0.79431758    -0.12300
C1583       C  0.66562137  0.14055748  0.77521908     0.01800
C1584       C  0.70018324  0.12749644  0.77567214    -0.00500
C1585       C  0.70713256  0.09594913  0.79312510    -0.12200
C1586       C  0.68119581  0.07954527  0.81263050     0.01700
H1587       H  0.61317279  0.13464432  0.79462655     0.14700
H1588       H  0.73355539  0.08527391  0.79346698     0.14700
C1589       C  0.68988953  0.04807353  0.83105235     0.36400
C1590       C  0.65628312  0.17062863  0.75502577     0.36300
N1591       N  0.69669433  0.02277298  0.84578017    -0.44000
N1592       N  0.64872417  0.19445004  0.73847386    -0.44000
C1593       C  0.76347444  0.22868488  0.65458528    -0.00400
C1594       C  0.77428407  0.25998859  0.63925031    -0.12300
C1595       C  0.75487693  0.27462067  0.61261917     0.01800
C1596       C  0.72418457  0.25760921  0.60041434    -0.00500
C1597       C  0.71327207  0.22645905  0.61586132    -0.12200
C1598       C  0.73248297  0.21195694  0.64260996     0.01700
H1599       H  0.79706389  0.27381646  0.64898260     0.14700
H1600       H  0.69038794  0.21271217  0.60623693     0.14700
C1601       C  0.72003974  0.17939319  0.65700362     0.36400
C1602       C  0.76628825  0.30790268  0.59899480     0.36300
N1603       N  0.71000704  0.15337527  0.66859463    -0.44000
N1604       N  0.77527244  0.33466955  0.58821222    -0.44000
C1605       C  0.72359581  0.26184508  0.89945018    -0.00400
C1606       C  0.71132044  0.22781983  0.89158604    -0.12300
C1607       C  0.72953818  0.20595976  0.86936611     0.01800
C1608       C  0.76088585  0.21780028  0.85450967    -0.00500
C1609       C  0.77314495  0.25182801  0.86250826    -0.12200
C1610       C  0.75447046  0.27405350  0.88394965     0.01700
H1611       H  0.68761910  0.21790791  0.90350221     0.14700
H1612       H  0.79681802  0.26184978  0.85060373     0.14700
C1613       C  0.76771084  0.30910006  0.88930498     0.36400
C1614       C  0.71471928  0.17223610  0.86142275     0.36300
N1615       N  0.77832237  0.33732669  0.89277750    -0.44000
N1616       N  0.70267686  0.14516750  0.85522322    -0.44000
C1617       C  0.85317580  0.28294035  0.78153626    -0.00400
C1618       C  0.88472339  0.27531254  0.79909860    -0.12300
C1619       C  0.90039327  0.29963344  0.82096097     0.01800
C1620       C  0.88464947  0.33250539  0.82570256    -0.00500
C1621       C  0.85274169  0.33992408  0.80913109    -0.12200
C1622       C  0.83682092  0.31557453  0.78745754     0.01700
H1623       H  0.89756426  0.25016417  0.79571310     0.14700
H1624       H  0.84048786  0.36536754  0.81267081     0.14700
C1625       C  0.80433517  0.32535033  0.77121068     0.36400
C1626       C  0.93352063  0.29101529  0.83664770     0.36300
N1627       N  0.77828697  0.33344020  0.75831267    -0.44000
N1628       N  0.96014694  0.28408825  0.84907876    -0.44000
C1629       C  0.78484134  0.85702568  0.53452443    -0.00400
C1630       C  0.81884314  0.84334075  0.53236491    -0.12300
C1631       C  0.84681760  0.85940838  0.54932668     0.01800
C1632       C  0.84087427  0.88951627  0.56951290    -0.00500
C1633       C  0.80683645  0.90308983  0.57197016    -0.12200
C1634       C  0.77892479  0.88744389  0.55449093     0.01700
H1635       H  0.82347340  0.81973411  0.51776154     0.14700
H1636       H  0.80202960  0.92586798  0.58769386     0.14700
C1637       C  0.74420798  0.90213758  0.55914229     0.36400
C1638       C  0.88103439  0.84317047  0.54706320     0.36300
N1639       N  0.71511049  0.90368165  0.07451437    -0.44000
N1640       N  0.90843599  0.83012679  0.54526990    -0.44000
C1641       C  0.88964108  0.83761090  0.68340210    -0.00400
C1642       C  0.89824039  0.80263289  0.67718513    -0.12300
C1643       C  0.88402462  0.77561160  0.69697054     0.01800
C1644       C  0.86145004  0.78332730  0.72456449    -0.00500
C1645       C  0.85190129  0.81829629  0.73001858    -0.12200
C1646       C  0.86528707  0.84523615  0.70964110     0.01700
H1647       H  0.91583347  0.79632143  0.65655337     0.14700
H1648       H  0.83356951  0.82461193  0.75004353     0.14700
C1649       C  0.85193889  0.88026452  0.71523009     0.36400
C1650       C  0.89060541  0.74028449  0.68587206     0.36300
N1651       N  0.84108533  0.90828048  0.71949738    -0.44000
N1652       N  0.89577719  0.71253109  0.67528611    -0.44000
C1653       C  0.88287986  0.03739766  0.65333404    -0.00400
C1654       C  0.90053253  0.06896599  0.65991677    -0.12300
C1655       C  0.88430813  0.09577146  0.67835478     0.01800
C1656       C  0.85021735  0.09072425  0.69182705    -0.00500
C1657       C  0.83204494  0.05985433  0.68460370    -0.12200
C1658       C  0.84754317  0.03359616  0.66491430     0.01700
H1659       H  0.92734780  0.07247379  0.65122622     0.14700
H1660       H  0.80554364  0.05637566  0.69417921     0.14700
C1661       C  0.82650464  0.00278603  0.65814041     0.36400
C1662       C  0.90367775  0.12789134  0.68386398     0.36300
N1663       N  0.80944958  0.97828366  0.65257467    -0.44000
N1664       N  0.91922078  0.15367585  0.68790474    -0.44000
C1665       C  0.13373048  0.70605079  0.72212641    -0.00400
C1666       C  0.13645925  0.67102982  0.73193538    -0.12300
C1667       C  0.12063322  0.64439993  0.71293538     0.01800
C1668       C  0.10126693  0.65266664  0.68321171    -0.00500
C1669       C  0.10033924  0.68758100  0.67244561    -0.12200
C1670       C  0.11631098  0.71416616  0.69148549     0.01700
H1671       H  0.15063375  0.66447539  0.75478729     0.14700
H1672       H  0.08687755  0.69420135  0.64922717     0.14700
C1673       C  0.11591293  0.74918830  0.67772516     0.36400
C1674       C  0.12595501  0.60874913  0.72427636     0.36300
N1675       N  0.11549915  0.77673639  0.66551624    -0.44000
N1676       N  0.13030524  0.58021296  0.73334112    -0.44000
C1677       C  0.22621822  0.75600018  0.84879326    -0.00400
C1678       C  0.26211560  0.76410834  0.85422236    -0.12300
C1679       C  0.28064308  0.75213421  0.88261986     0.01800
C1680       C  0.26338220  0.73171029  0.90723036    -0.00500
C1681       C  0.22744409  0.72361601  0.90192206    -0.12200
C1682       C  0.20903831  0.73515665  0.87314304     0.01700
H1683       H  0.27616249  0.77995234  0.83594225     0.14700
H1684       H  0.21354768  0.70766964  0.92022130     0.14700
C1685       C  0.17316481  0.72372200  0.86864205     0.36400
C1686       C  0.31718954  0.76185704  0.88587736     0.36300
N1687       N  0.14449232  0.71420035  0.86509596    -0.44000
N1688       N  0.34650648  0.76964629  0.88831454    -0.44000
C1689       C  0.22976404  0.76581303  0.64939632    -0.00400
C1690       C  0.22004054  0.73041400  0.64383540    -0.12300
C1691       C  0.23999999  0.70812793  0.62354392     0.01800
C1692       C  0.27009700  0.72123040  0.60734679    -0.00500
C1693       C  0.28027149  0.75635940  0.61349047    -0.12200
C1694       C  0.25986013  0.77890601  0.63318635     0.01700
H1695       H  0.19708060  0.71958195  0.65633584     0.14700
H1696       H  0.30343209  0.76690651  0.60120626     0.14700
C1697       C  0.26980509  0.81539502  0.63519555     0.36400
C1698       C  0.22877887  0.67213887  0.62003562     0.36300
N1699       N  0.27748269  0.84477448  0.63604968    -0.44000
N1700       N  0.21971408  0.64322697  0.61807757    -0.44000
C1701       C  0.03828605  0.88452987  0.65238057    -0.00400
C1702       C  0.02967159  0.85880599  0.67671510    -0.12300
C1703       C  0.05514825  0.84456509  0.69845371     0.01800
C1704       C  0.09043231  0.85545299  0.69583583    -0.00500
C1705       C  0.09899150  0.88130792  0.67166994    -0.12200
C1706       C  0.07343954  0.89603433  0.65038249     0.01700
H1707       H  0.00266479  0.84996391  0.67912377     0.14700
H1708       H  0.12600669  0.89014363  0.66932742     0.14700
C1709       C  0.08428499  0.92209023  0.62612806     0.36400
C1710       C  0.04455622  0.81804604  0.72233652     0.36300
N1711       N  0.09299383  0.94298207  0.60668202    -0.44000
N1712       N  0.03597103  0.79681280  0.74148883    -0.44000
C1713       C  0.13382716  0.20545095  0.77642354    -0.00400
C1714       C  0.10370557  0.21371139  0.79584980    -0.12300
C1715       C  0.08837741  0.18919990  0.81773109     0.01800
C1716       C  0.10295147  0.15555069  0.82038442    -0.00500
C1717       C  0.13288883  0.14715083  0.80108495    -0.12200
C1718       C  0.14839943  0.17159667  0.77934216     0.01700
H1719       H  0.09216653  0.23967563  0.79438985     0.14700
H1720       H  0.14403105  0.12099558  0.80273481     0.14700
C1721       C  0.17848366  0.16074442  0.75977237     0.36400
C1722       C  0.05711204  0.19871143  0.83618571     0.36300
N1723       N  0.20252079  0.15193505  0.74403359    -0.44000
N1724       N  0.03200935  0.20629281  0.85095160    -0.44000
C1725       C  0.15209142  0.10123330  0.93203718    -0.00400
C1726       C  0.14414183  0.12797829  0.95545624    -0.12300
C1727       C  0.17084546  0.14606453  0.97275563     0.01800
C1728       C  0.20616074  0.13650654  0.96781464    -0.00500
C1729       C  0.21401962  0.10922194  0.94511801    -0.12200
C1730       C  0.18755841  0.09209694  0.92686558     0.01700
H1731       H  0.11700429  0.13570588  0.95936194     0.14700
H1732       H  0.24123917  0.10207180  0.94066016     0.14700
C1733       C  0.19759306  0.06532901  0.90302709     0.36400
C1734       C  0.16258279  0.18070681  0.48670842     0.36300
N1735       N  0.20575856  0.04399504  0.88383625    -0.44000
N1736       N  0.15623128  0.20666422  0.50054951    -0.44000
C1737       C  0.00908890  0.01305955  0.97027847    -0.00400
C1738       C  0.00108247  0.97670605  0.96922613    -0.12300
C1739       C  0.98455184  0.95825885  0.49683985     0.01800
C1740       C  0.98318621  0.97540348  0.52823119    -0.00500
C1741       C  0.99330581  0.01121067  0.52943451    -0.12200
C1742       C  0.00417049  0.03084439  0.00097677     0.01700
H1743       H  0.00417800  0.96228731  0.94588543     0.14700
H1744       H  0.99262939  0.02525298  0.55316483     0.14700
C1745       C  0.01212109  0.06770962  0.00455103     0.36400
C1746       C  0.97300966  0.92239154  0.49302111     0.36300
N1747       N  0.01849775  0.09725547  0.00750556    -0.44000
N1748       N  0.96356258  0.89369295  0.48989543    -0.44000
C1749       C  0.01875146  0.01744226  0.77068062    -0.00400
C1750       C  0.98330981  0.02712229  0.76488926    -0.12300
C1751       C  0.96135843  0.00751377  0.74382418     0.01800
C1752       C  0.97506930  0.97814277  0.72698897    -0.00500
C1753       C  0.01060098  0.96882845  0.73245417    -0.12200
C1754       C  0.03247361  0.98834449  0.75349442     0.01700
H1755       H  0.97210195  0.04931868  0.77822816     0.14700
H1756       H  0.02184107  0.94646026  0.71940338     0.14700
C1757       C  0.06852633  0.97729303  0.75712642     0.36400
C1758       C  0.92502917  0.01793446  0.74049389     0.36300
N1759       N  0.09742894  0.96814117  0.75918756    -0.44000
N1760       N  0.89581864  0.02613883  0.73842795    -0.44000
C1761       C  0.95450905  0.10485057  0.84853178    -0.00400
C1762       C  0.96348289  0.12855140  0.82253538    -0.12300
C1763       C  0.93779451  0.14377914  0.80179060     0.01800
C1764       C  0.90209131  0.13585510  0.80713108    -0.00500
C1765       C  0.89321461  0.11172242  0.83282698    -0.12200
C1766       C  0.91893161  0.09604478  0.85316736     0.01700
H1767       H  0.99087945  0.13515956  0.81824261     0.14700
H1768       H  0.86587393  0.10490009  0.83708952     0.14700
C1769       C  0.90796103  0.07203635  0.87925361     0.36400
C1770       C  0.94870674  0.16831899  0.77615735     0.36300
N1771       N  0.89910326  0.05280026  0.90015534    -0.44000
N1772       N  0.95746739  0.18803049  0.75563250    -0.44000
C1773       C  0.11149822  0.95480929  0.84390430    -0.00400
C1774       C  0.09868062  0.92053670  0.84688387    -0.12300
C1775       C  0.11587590  0.89252407  0.83099560     0.01800
C1776       C  0.14603024  0.89878600  0.81073013    -0.00500
C1777       C  0.15900408  0.93295306  0.80797810    -0.12200
C1778       C  0.14243258  0.96080481  0.82457739     0.01700
H1779       H  0.07495196  0.91569514  0.86132074     0.14700
H1780       H  0.18180943  0.93801139  0.79228667     0.14700
C1781       C  0.15623671  0.99564315  0.81877902     0.36400
C1782       C  0.10084601  0.85787687  0.83462276     0.36300
N1783       N  0.16723459  0.02351730  0.81390861    -0.44000
N1784       N  0.08894143  0.83008438  0.83763651    -0.44000
C1785       C  0.39153244  0.83151739  0.57531323    -0.00400
C1786       C  0.35488825  0.83129521  0.57095139    -0.12300
C1787       C  0.33867296  0.80856385  0.54783115     0.01800
C1788       C  0.35926393  0.78461898  0.52900463    -0.00500
C1789       C  0.39605783  0.78497814  0.53368096    -0.12200
C1790       C  0.41219622  0.80854586  0.55598634     0.01700
H1791       H  0.33896713  0.85005398  0.58472417     0.14700
H1792       H  0.41248736  0.76702649  0.51951305     0.14700
C1793       C  0.45007634  0.80985016  0.55740677     0.36400
C1794       C  0.30096255  0.81061933  0.54411511     0.36300
N1795       N  0.48045931  0.81100678  0.55808801    -0.44000
N1796       N  0.27072759  0.81232566  0.54121581    -0.44000
C1797       C  0.50786815  0.01242994  0.78091832    -0.00400
C1798       C  0.50297295  0.97559460  0.78054774    -0.12300
C1799       C  0.49247543  0.95747881  0.75146011     0.01800
C1800       C  0.48607010  0.97606721  0.72135908    -0.00500
C1801       C  0.49152448  0.01284097  0.72153844    -0.12200
C1802       C  0.50240466  0.03092186  0.75061358     0.01700
H1803       H  0.50724381  0.96046281  0.80329630     0.14700
H1804       H  0.48745789  0.02785126  0.69868328     0.14700
C1805       C  0.50833896  0.06825781  0.74821502     0.36400
C1806       C  0.48852867  0.91984903  0.75360452     0.36300
N1807       N  0.51320020  0.09817093  0.74616678    -0.44000
N1808       N  0.48554090  0.88967776  0.75544158    -0.44000
C1809       C  0.52222243  0.01031580  0.98132231    -0.00400
C1810       C  0.52284988  0.97351285  0.98270747    -0.12300
C1811       C  0.49886374  0.95502617  0.00288726     0.01800
C1812       C  0.47422283  0.97301050  0.52168414    -0.00500
C1813       C  0.47369685  0.00979067  0.52055069    -0.12200
C1814       C  0.49811893  0.02838462  0.50104286     0.01700
H1815       H  0.54090799  0.95910926  0.96670323     0.14700
H1816       H  0.45549795  0.02411847  0.53647036     0.14700
C1817       C  0.49731002  0.06627343  0.50167294     0.36400
C1818       C  0.50063521  0.91716281  0.00371478     0.36300
N1819       N  0.49689865  0.09663095  0.50244291    -0.44000
N1820       N  0.50189170  0.88682420  0.00440002    -0.44000
C1821       C  0.38627811  0.03710751  0.59542581    -0.00400
C1822       C  0.35145906  0.03262313  0.58361673    -0.12300
C1823       C  0.33377555  0.05940531  0.56625613     0.01800
C1824       C  0.35016459  0.09208999  0.56166945    -0.00500
C1825       C  0.38414052  0.09736141  0.57478073    -0.12200
C1826       C  0.40257953  0.07008102  0.59071471     0.01700
H1827       H  0.33849459  0.00742256  0.58631975     0.14700
H1828       H  0.39712653  0.12239431  0.57082980     0.14700
C1829       C  0.43849997  0.07638957  0.60077659     0.36400
C1830       C  0.29910932  0.05264110  0.55291993     0.36300
N1831       N  0.46742107  0.08141406  0.60847786    -0.44000
N1832       N  0.27135433  0.04724891  0.54213089    -0.44000
C1833       C  0.34486205  0.88866093  0.68510460    -0.00400
C1834       C  0.34464694  0.85184822  0.68480625    -0.12300
C1835       C  0.32080111  0.83266120  0.70447307     0.01800
C1836       C  0.29571761  0.85051374  0.72452194    -0.00500
C1837       C  0.29807254  0.88749380  0.72670053    -0.12200
C1838       C  0.32259780  0.90648409  0.70750613     0.01700
H1839       H  0.36310164  0.83793585  0.66883455     0.14700
H1840       H  0.27978221  0.90188058  0.74242915     0.14700
C1841       C  0.32415227  0.94417697  0.71074149     0.36400
C1842       C  0.32198392  0.79484708  0.70220615     0.36300
N1843       N  0.32561782  0.97438687  0.71339879    -0.44000
N1844       N  0.32299799  0.76456177  0.70020436    -0.44000
C1845       C  0.53805555  0.87890505  0.60123380    -0.00400
C1846       C  0.55512098  0.89928599  0.57682229    -0.12300
C1847       C  0.57706688  0.88388824  0.55267578     0.01800
C1848       C  0.58235947  0.84717097  0.55240315    -0.00500
C1849       C  0.56611173  0.82679992  0.57738604    -0.12200
C1850       C  0.54400025  0.84218396  0.60154229     0.01700
H1851       H  0.55063959  0.92738339  0.57599381     0.14700
H1852       H  0.57159087  0.79888959  0.57864821     0.14700
C1853       C  0.52846290  0.81972200  0.62681077     0.36400
C1854       C  0.59486284  0.90695820  0.52949084     0.36300
N1855       N  0.51598372  0.80166289  0.64697827    -0.44000
N1856       N  0.60863026  0.92658424  0.51160193    -0.44000
loop_ 
_geom_bond_atom_site_label_1 
_geom_bond_atom_site_label_2 
_geom_bond_distance 
_geom_bond_site_symmetry_2 
_ccdc_geom_bond_type 
O1          Cr19   2.021       .  S
O1            C9   1.271       .  A
O2          Cr19   1.937       .  S
O2            C3   1.243       .  A
C3            O4   1.275       .  A
C3          C884   1.470       .  S
O4          Cr20   2.066       .  S
O5          Cr20   1.950       .  S
O5            C6   1.254       .  A
C6            O7   1.276       .  A
C6          C857   1.476       .  S
O7          Cr21   2.054       .  S
O8          Cr21   1.956       .  S
O8            C9   1.252       .  A
C9          C917   1.486       .  S
O10         Cr19   1.951       .  S
O10          C18   1.257       .  A
O11         Cr19   2.051   1_545  S
O11          C12   1.276       .  A
C12          O13   1.257   1_545  A
C12         C893   1.496       .  S
O13         Cr20   1.959       .  S
O14         Cr20   2.049       .  S
O14          C15   1.276       .  A
C15          O16   1.254       .  A
C15         C905   1.473       .  S
O16         Cr21   1.954       .  S
O17         Cr21   2.054       .  S
O17          C18   1.280       .  A
C18         C872   1.502       .  S
Cr19         O22   1.753       .  S
Cr20         O22   1.760       .  S
Cr21         O22   1.762       .  S
O23         Cr41   2.026   1_655  S
O23          C31   1.270       .  A
O24         Cr41   1.922       .  S
O24          C25   1.241       .  A
C25          O26   1.275       .  A
C25         C821   1.476       .  S
O26         Cr42   2.064       .  S
O27         Cr42   1.932       .  S
O27          C28   1.249       .  A
C28          O29   1.276       .  A
C28         C788   1.473       .  S
O29         Cr43   2.055       .  S
O30         Cr43   1.961       .  S
O30          C31   1.252   1_455  A
C31         C833   1.491       .  S
O32         Cr41   1.942       .  S
O32          C40   1.257       .  A
O33         Cr41   2.059   1_565  S
O33          C34   1.276       .  A
C34          O35   1.251   1_565  A
C34         C845   1.488       .  S
O35         Cr42   1.948       .  S
O36         Cr42   2.040       .  S
O36          C37   1.276       .  A
C37          O38   1.259       .  A
C37         C797   1.482       .  S
O38         Cr43   1.958       .  S
O39         Cr43   2.071       .  S
O39          C40   1.286       .  A
C40         C809   1.503       .  S
Cr41         O44   1.753       .  S
Cr42         O44   1.754       .  S
Cr43         O44   1.758       .  S
O45         Cr63   2.020       .  S
O45          C53   1.268       .  A
O46         Cr63   1.920       .  S
O46          C47   1.240       .  A
C47          O48   1.278       .  A
C47         C761   1.482       .  S
O48         Cr64   2.077       .  S
O49         Cr64   1.947       .  S
O49          C50   1.256       .  A
C50          O51   1.280       .  A
C50         C776   1.492       .  S
O51         Cr65   2.061       .  S
O52         Cr65   1.966       .  S
O52          C53   1.251       .  A
C53         C737   1.484       .  S
O54         Cr63   1.940       .  S
O54          C62   1.255       .  A
O55         Cr63   2.047       .  S
O55          C56   1.273       .  A
C56          O57   1.254       .  A
C56         C908   1.495       .  S
O57         Cr64   1.956       .  S
O58         Cr64   2.046       .  S
O58          C59   1.277       .  A
C59          O60   1.256       .  A
C59         C848   1.481       .  S
O60         Cr65   1.950       .  S
O61         Cr65   2.084       .  S
O61          C62   1.288       .  A
C62         C749   1.508       .  S
Cr63         O66   1.751       .  S
Cr64         O66   1.759       .  S
Cr65         O66   1.754       .  S
O67         Cr85   1.960       .  S
O67          C75   1.254   1_655  A
O68         Cr85   2.071       .  S
O68          C69   1.282       .  A
C69          O70   1.250       .  A
C69         C713   1.490       .  S
O70         Cr86   1.938       .  S
O71         Cr86   2.064       .  S
O71          C72   1.275       .  A
C72          O73   1.241       .  A
C72         C824   1.475       .  S
O73         Cr87   1.918       .  S
O74         Cr87   2.029   1_455  S
O74          C75   1.272       .  A
C75         C773   1.496       .  S
O76         Cr85   2.077       .  S
O76          C84   1.286       .  A
O77         Cr85   1.951       .  S
O77          C78   1.255       .  A
C78          O79   1.275       .  A
C78         C704   1.480       .  S
O79         Cr86   2.041       .  S
O80         Cr86   1.948       .  S
O80          C81   1.250   1_565  A
C81          O82   1.277       .  A
C81         C725   1.491       .  S
O82         Cr87   2.060   1_545  S
O83         Cr87   1.936       .  S
O83          C84   1.254       .  A
C84         C812   1.504       .  S
Cr85         O88   1.753       .  S
Cr86         O88   1.750       .  S
Cr87         O88   1.746       .  S
O89        Cr107   1.950       .  S
O89          C97   1.251       .  A
O90        Cr107   2.055       .  S
O90          C91   1.277       .  A
C91          O92   1.253       .  A
C91         C836   1.487       .  S
O92        Cr108   1.944       .  S
O93        Cr108   2.073       .  S
O93          C94   1.278       .  A
C94          O95   1.242       .  A
C94         C680   1.472       .  S
O95        Cr109   1.911       .  S
O96        Cr109   2.031       .  S
O96          C97   1.272       .  A
C97         C689   1.483       .  S
O98        Cr107   2.068       .  S
O98         C106   1.283       .  A
O99        Cr107   1.951       .  S
O99         C100   1.256       .  A
C100        O101   1.277       .  A
C100        C728   1.478       .  S
O101       Cr108   2.046       .  S
O102       Cr108   1.950       .  S
O102        C103   1.251       .  A
C103        O104   1.273       .  A
C103        C656   1.479       .  S
O104       Cr109   2.045       .  S
O105       Cr109   1.929       .  S
O105        C106   1.251       .  A
C106        C665   1.485       .  S
Cr107       O110   1.759       .  S
Cr108       O110   1.753       .  S
Cr109       O110   1.754       .  S
O111       Cr129   1.942       .  S
O111        C119   1.251       .  A
O112       Cr129   2.074       .  S
O112        C113   1.283       .  A
C113        O114   1.250       .  A
C113        C632   1.498       .  S
O114       Cr130   1.940       .  S
O115       Cr130   2.065       .  S
O115        C116   1.275       .  A
C116        O117   1.244       .  A
C116        C617   1.468       .  S
O117       Cr131   1.935       .  S
O118       Cr131   2.021       .  S
O118        C119   1.271       .  A
C119        C785   1.488       .  S
O120       Cr129   2.075       .  S
O120        C128   1.285       .  A
O121       Cr129   1.947       .  S
O121        C122   1.254       .  A
C122        O123   1.276       .  A
C122        C644   1.477       .  S
O123       Cr130   2.049       .  S
O124       Cr130   1.949       .  S
O124        C125   1.251       .  A
C125        O126   1.276       .  A
C125        C593   1.487       .  S
O126       Cr131   2.055       .  S
O127       Cr131   1.939       .  S
O127        C128   1.255       .  A
C128        C605   1.505       .  S
Cr129       O132   1.760       .  S
Cr130       O132   1.749       .  S
Cr131       O132   1.752       .  S
O133       Cr151   1.957       .  S
O133        C141   1.252   1_455  A
O134       Cr151   2.067       .  S
O134        C135   1.279       .  A
C135        O136   1.248       .  A
C135        C740   1.493       .  S
O136       Cr152   1.938       .  S
O137       Cr152   2.064       .  S
O137        C138   1.275       .  A
C138        O139   1.242       .  A
C138        C572   1.477       .  S
O139       Cr153   1.923       .  S
O140       Cr153   2.026   1_655  S
O140        C141   1.272       .  A
C141        C548   1.496       .  S
O142       Cr151   2.071       .  S
O142        C150   1.285       .  A
O143       Cr151   1.949       .  S
O143        C144   1.257       .  A
C144        O145   1.277       .  A
C144        C581   1.477       .  S
O145       Cr152   2.045       .  S
O146       Cr152   1.947       .  S
O146        C147   1.252       .  A
C147        O148   1.276       .  A
C147        C641   1.489       .  S
O148       Cr153   2.056       .  S
O149       Cr153   1.947       .  S
O149        C150   1.257       .  A
C150        C560   1.504       .  S
Cr151       O154   1.760       .  S
Cr152       O154   1.752       .  S
Cr153       O154   1.750       .  S
O155       Cr173   2.028   1_455  S
O155        C163   1.271       .  A
O156       Cr173   1.921       .  S
O156        C157   1.240       .  A
C157        O158   1.276       .  A
C157        C569   1.478       .  S
O158       Cr174   2.069       .  S
O159       Cr174   1.934       .  S
O159        C160   1.251       .  A
C160        O161   1.279       .  A
C160        C692   1.493       .  S
O161       Cr175   2.068       .  S
O162       Cr175   1.970       .  S
O162        C163   1.253   1_655  A
C163        C629   1.491       .  S
O164       Cr173   1.941       .  S
O164        C172   1.255       .  A
O165       Cr173   2.057       .  S
O165        C166   1.276       .  A
C166        O167   1.251       .  A
C166        C521   1.484       .  S
O167       Cr174   1.945       .  S
O168       Cr174   2.047       .  S
O168        C169   1.278       .  A
C169        O170   1.258       .  A
C169        C536   1.481       .  S
O170       Cr175   1.953       .  S
O171       Cr175   2.082       .  S
O171        C172   1.289       .  A
C172        C557   1.506       .  S
Cr173       O176   1.750       .  S
Cr174       O176   1.753       .  S
Cr175       O176   1.756       .  S
O177       Cr195   1.966       .  S
O177       C1113   1.254       .  A
O178      Cr1123   2.061   1_554  S
O178        C179   1.277       .  A
C179        O180   1.252       .  A
C179        C509   1.480       .  S
O180       Cr196   1.949       .  S
O181       Cr196   2.061       .  S
O181        C182   1.276       .  A
C182        O183   1.243       .  A
C182        C764   1.476       .  S
O183       Cr197   1.924       .  S
O184       Cr197   2.019   1_556  S
O184        C185   1.269   1_556  A
C185       O1105   1.254       .  A
C185        C860   1.498       .  S
O186       Cr195   2.071       .  S
O186        C194   1.285       .  A
O187       Cr195   1.948       .  S
O187        C188   1.255       .  A
C188        O189   1.277       .  A
C188        C497   1.473       .  S
O189      Cr1124   2.045       .  S
O190       Cr196   1.955       .  S
O190        C191   1.254       .  A
C191        O192   1.273       .  A
C191        C584   1.487       .  S
O192       Cr197   2.047       .  S
O193      Cr1125   1.954       .  S
O193        C194   1.258       .  A
C194        C752   1.507       .  S
Cr195      O1106   2.063       .  S
Cr195      O1126   1.759       .  S
Cr196      O1117   2.042   1_554  S
Cr196       O198   1.759       .  S
Cr197      O1121   1.954   1_554  S
Cr197       O198   1.752       .  S
O198      Cr1123   1.759   1_554  S
O199       Cr217   2.033       .  S
O199        C207   1.275       .  A
O200       Cr217   1.923       .  S
O200        C201   1.243       .  A
C201        O202   1.276       .  A
C201        C677   1.470       .  S
O202       Cr218   2.062       .  S
O203       Cr218   1.935       .  S
O203        C204   1.249       .  A
C204        O205   1.279       .  A
C204        C461   1.486       .  S
O205      Cr1147   2.066       .  S
O206       Cr219   1.950       .  S
O206       C1135   1.252   1_554  A
C207       O1134   1.252       .  A
C207        C485   1.492       .  S
O208      Cr1145   1.940   1_554  S
O208        C216   1.253       .  A
O209       Cr217   2.057       .  S
O209        C210   1.276       .  A
C210        O211   1.251       .  A
C210        C533   1.487       .  S
O211       Cr218   1.947       .  S
O212      Cr1146   2.045   1_554  S
O212        C213   1.277       .  A
C213        O214   1.253       .  A
C213        C473   1.477       .  S
O214       Cr219   1.944       .  S
O215       Cr219   2.058       .  S
O215        C216   1.281       .  A
C216        C668   1.482       .  S
Cr217      O1136   1.941       .  S
Cr217      O1148   1.748       .  S
Cr218      O1140   2.045       .  S
Cr218      O1148   1.749       .  S
Cr219      O1133   2.061   1_554  S
Cr219       O220   1.758       .  S
O220      Cr1145   1.748   1_554  S
O220      Cr1146   1.748   1_554  S
O221       Cr239   1.945       .  S
O221        C229   1.250       .  A
O222       Cr239   2.062       .  S
O222        C223   1.278       .  A
C223        O224   1.253       .  A
C223        C449   1.481       .  S
O224       Cr240   1.954       .  S
O225       Cr240   2.055       .  S
O225        C226   1.272       .  A
C226        O227   1.244       .  A
C226        C437   1.460       .  S
O227       Cr241   1.934       .  S
O228       Cr241   2.024       .  S
O228        C229   1.270       .  A
C229        C464   1.481       .  S
O230       Cr239   2.069       .  S
O230        C238   1.284       .  A
O231       Cr239   1.949       .  S
O231        C232   1.255       .  A
C232        O233   1.275       .  A
C232        C596   1.476       .  S
O233       Cr240   2.041       .  S
O234       Cr240   1.954       .  S
O234        C235   1.255       .  A
C235        O236   1.275       .  A
C235        C500   1.489       .  S
O236       Cr241   2.047       .  S
O237       Cr241   1.944       .  S
O237        C238   1.255       .  A
C238        C425   1.506       .  S
Cr239       O242   1.760       .  S
Cr240       O242   1.755       .  S
Cr241       O242   1.755       .  S
O243       Cr261   2.019       .  S
O243        C251   1.269       .  A
O244       Cr261   1.941       .  S
O244        C245   1.244       .  A
C245        O246   1.273       .  A
C245        C620   1.467       .  S
O246       Cr262   2.057       .  S
O247       Cr262   1.946       .  S
O247        C248   1.253       .  A
C248        O249   1.274       .  A
C248        C413   1.468       .  S
O249      Cr1191   2.048       .  S
O250       Cr263   1.970       .  S
O250       C1179   1.254   1_554  A
C251       O1178   1.254       .  A
C251        C452   1.488       .  S
O252      Cr1189   1.947   1_554  S
O252        C260   1.257       .  A
O253       Cr261   2.051       .  S
O253       C1182   1.275       .  A
C254       O1181   1.274       .  A
C254       O1183   1.255       .  A
C254       C1728   1.482       .  S
O255       Cr262   1.955       .  S
O255       C1182   1.256       .  A
O256      Cr1190   2.044   1_554  S
O256        C257   1.276       .  A
C257        O258   1.257       .  A
C257        C896   1.481       .  S
O258       Cr263   1.959       .  S
O259       Cr263   2.062       .  S
O259        C260   1.283       .  A
C260        C608   1.503       .  S
Cr261      O1180   1.948       .  S
Cr261      O1192   1.756       .  S
Cr262      O1184   2.041       .  S
Cr262      O1192   1.759       .  S
Cr263      O1177   2.053       .  S
Cr263       O264   1.766   1_554  S
O264      Cr1189   1.757       .  S
O264      Cr1190   1.758       .  S
O265       Cr283   1.949       .  S
O265        C273   1.251       .  A
O266       Cr283   2.063       .  S
O266        C267   1.280       .  A
C267        O268   1.252       .  A
C267        C488   1.476       .  S
O268       Cr284   1.939       .  S
O269       Cr284   2.073       .  S
O269        C270   1.278       .  A
C270        O271   1.245       .  A
C270        C881   1.471       .  S
O271       Cr285   1.936       .  S
O272       Cr285   2.017       .  S
O272        C273   1.269       .  A
C273        C416   1.475       .  S
O274       Cr283   2.062       .  S
O274        C282   1.283       .  A
O275       Cr283   1.942       .  S
O275        C276   1.251       .  A
C276        O277   1.275       .  A
C276        C653   1.477       .  S
O277       Cr284   2.044       .  S
O278       Cr284   1.946       .  S
O278        C279   1.248   1_545  A
C279        O280   1.272       .  A
C279        C404   1.474       .  S
O280       Cr285   2.046   1_565  S
O281       Cr285   1.940       .  S
O281        C282   1.255       .  A
C282        C869   1.502       .  S
Cr283       O286   1.756       .  S
Cr284       O286   1.754       .  S
Cr285       O286   1.754       .  S
O287       Cr305   1.948       .  S
O287       C1223   1.251       .  A
O288      Cr1233   2.066   1_554  S
O288        C289   1.278       .  A
C289        O290   1.251       .  A
C289        C920   1.478       .  S
O290       Cr306   1.946       .  S
O291       Cr306   2.071       .  S
O291        C292   1.276       .  A
C292        O293   1.240       .  A
C292        C392   1.470       .  S
O293       Cr307   1.926       .  S
O294       Cr307   2.019   1_556  S
O294        C295   1.270   1_556  A
C295       O1215   1.252   1_554  A
C295        C365   1.477       .  S
O296       Cr305   2.068       .  S
O296        C304   1.284       .  A
O297       Cr305   1.940       .  S
O297        C298   1.252       .  A
C298        O299   1.278       .  A
C298        C401   1.473       .  S
O299      Cr1234   2.046       .  S
O300       Cr306   1.946       .  S
O300        C301   1.251       .  A
C301        O302   1.273       .  A
C301        C701   1.474       .  S
O302       Cr307   2.045       .  S
O303      Cr1235   1.936       .  S
O303        C304   1.252       .  A
C304        C377   1.487       .  S
Cr305      O1216   2.067       .  S
Cr305      O1236   1.755       .  S
Cr306      O1227   2.048   1_554  S
Cr306       O308   1.752       .  S
Cr307      O1231   1.941   1_554  S
Cr307       O308   1.747       .  S
O308      Cr1233   1.756   1_554  S
O309       Cr327   2.022       .  S
O309        C317   1.270       .  A
O310       Cr327   1.923       .  S
O310        C311   1.241       .  A
C311        O312   1.279       .  A
C311        C389   1.468       .  S
O312       Cr328   2.070       .  S
O313       Cr328   1.943       .  S
O313        C314   1.254       .  A
C314        O315   1.277       .  A
C314        C545   1.483       .  S
O315       Cr329   2.050       .  S
O316       Cr329   1.970       .  S
O316        C317   1.253       .  A
C317        C716   1.494       .  S
O318       Cr327   1.932       .  S
O318        C326   1.253       .  A
O319       Cr327   2.048       .  S
O319        C320   1.272       .  A
C320        O321   1.252       .  A
C320        C353   1.481       .  S
O321       Cr328   1.965       .  S
O322       Cr328   2.042       .  S
O322        C323   1.276       .  A
C323        O324   1.256       .  A
C323        C524   1.480       .  S
O324       Cr329   1.951       .  S
O325       Cr329   2.070       .  S
O325        C326   1.283       .  A
C326        C380   1.487       .  S
Cr327       O330   1.756       .  S
Cr328       O330   1.758       .  S
Cr329       O330   1.758       .  S
O331       Cr349   2.020       .  S
O331        C339   1.270       .  A
O332       Cr349   1.932       .  S
O332        C333   1.244       .  A
C333        O334   1.273       .  A
C333        C440   1.462       .  S
O334       Cr350   2.057       .  S
O335       Cr350   1.932       .  S
O335        C336   1.251       .  A
C336        O337   1.280       .  A
C336        C368   1.484       .  S
O337       Cr351   2.060       .  S
O338       Cr351   1.966       .  S
O338        C339   1.254       .  A
C339        C512   1.490       .  S
O340       Cr349   1.940       .  S
O340        C348   1.255       .  A
O341       Cr349   2.044       .  S
O341        C342   1.273       .  A
C342        O343   1.252       .  A
C342        C476   1.476       .  S
O343       Cr350   1.950       .  S
O344       Cr350   2.040       .  S
O344        C345   1.274       .  A
C345        O346   1.257       .  A
C345        C356   1.486       .  S
O346       Cr351   1.965       .  S
O347       Cr351   2.067       .  S
O347        C348   1.283       .  A
C348        C428   1.504       .  S
Cr349       O352   1.751       .  S
Cr350       O352   1.755       .  S
Cr351       O352   1.758       .  S
C353        C354   1.403       .  A
C353        C358   1.412       .  A
C354        C355   1.397       .  A
C354        H359   1.082       .  S
C355        C356   1.412       .  A
C355        C362   1.442       .  S
C356        C357   1.408       .  A
C357        C358   1.407       .  A
C357        H360   1.085       .  S
C358        C361   1.442       .  S
C361        N363   1.157       .  T
C362        N364   1.157       .  T
C365        C366   1.412       .  A
C365        C370   1.403       .  A
C366        C367   1.401       .  A
C366        H371   1.085       .  S
C367        C368   1.405       .  A
C367        C374   1.443       .  S
C368        C369   1.416       .  A
C369        C370   1.399       .  A
C369        H372   1.085       .  S
C370       C1301   1.444   1_554  S
C373       C1298   1.444       .  S
C373        N375   1.157       .  T
C374        N376   1.157       .  T
C377        C378   1.397       .  A
C377        C382   1.423       .  A
C378        C379   1.401       .  A
C378        H383   1.085       .  S
C379        C380   1.419       .  A
C379        C386   1.442       .  S
C380        C381   1.400       .  A
C381        C382   1.407       .  A
C381        H384   1.085       .  S
C382        C385   1.445       .  S
C385        N387   1.157       .  T
C386        N388   1.156       .  T
C389        C390   1.390       .  A
C389        C394   1.424       .  A
C390        C391   1.396       .  A
C390        H395   1.085       .  S
C391        C392   1.424       .  A
C391        C398   1.446       .  S
C392        C393   1.391       .  A
C393        C394   1.398       .  A
C393        H396   1.085       .  S
C394        C397   1.446       .  S
C397        N399   1.157       .  T
C398        N400   1.157       .  T
C401        C402   1.394       .  A
C401        C406   1.420       .  A
C402        C403   1.397       .  A
C402        H407   1.085       .  S
C403        C404   1.422       .  A
C403        C410   1.446       .  S
C404        C405   1.396       .  A
C405        C406   1.399       .  A
C405        H408   1.085       .  S
C406        C409   1.445       .  S
C409        N411   1.157       .  T
C410        N412   1.157   1_565  T
C413        C414   1.402       .  A
C413        C418   1.412       .  A
C414        C415   1.400       .  A
C414        H419   1.085       .  S
C415        C416   1.414       .  A
C415        C422   1.444       .  S
C416        C417   1.400       .  A
C417        C418   1.398       .  A
C417        H420   1.085       .  S
C418        C421   1.442       .  S
C421        N423   1.156       .  T
C422        N424   1.157       .  T
C425        C426   1.419       .  A
C425        C430   1.409       .  A
C426        C427   1.408       .  A
C426        H431   1.084       .  S
C427        C428   1.410       .  A
C427        C434   1.444       .  S
C428        C429   1.417       .  A
C429        C430   1.404       .  A
C429        H432   1.084       .  S
C430        C433   1.443       .  S
C433        N435   1.157       .  T
C434        N436   1.158       .  T
C437        C438   1.401       .  A
C437       C1370   1.409       .  A
C438       C1367   1.398       .  A
C438        H443   1.084       .  S
C439        C440   1.413       .  A
C439       C1366   1.400   1_554  A
C439        C446   1.445       .  S
C440        C441   1.400       .  A
C441        C442   1.398   1_554  A
C441        H444   1.085       .  S
C442       C1365   1.411       .  A
C442        C445   1.442       .  S
C445        N447   1.156       .  T
C446       N1376   1.157       .  T
N448       C1374   1.157       .  T
C449        C450   1.405       .  A
C449        C454   1.413       .  A
C450        C451   1.408       .  A
C450        H455   1.085       .  S
C451        C452   1.416       .  A
C451        C458   1.444       .  S
C452        C453   1.402       .  A
C453        C454   1.401       .  A
C453       H1384   1.085       .  S
C454        C457   1.441       .  S
H456       C1381   1.085       .  S
C457        N459   1.156       .  T
C458        N460   1.157       .  T
C461        C462   1.416       .  A
C461        C466   1.404       .  A
C462        C463   1.401       .  A
C462        H467   1.085       .  S
C463        C464   1.403       .  A
C463        C470   1.444       .  S
C464        C465   1.412       .  A
C465        C466   1.402       .  A
C465        H468   1.085       .  S
C466        C469   1.442       .  S
C469       N1399   1.157       .  T
C470        N472   1.157       .  T
N471       C1397   1.157       .  T
C473        C474   1.396       .  A
C473        C478   1.421       .  A
C474        C475   1.398       .  A
C474        H479   1.085       .  S
C475        C476   1.420       .  A
C475        C482   1.445       .  S
C476        C477   1.397       .  A
C477        C478   1.400       .  A
C477        H480   1.085       .  S
C478        C481   1.445       .  S
C481        N483   1.157       .  T
C482        N484   1.157       .  T
C485        C486   1.404       .  A
C485        C490   1.422       .  A
C486        C487   1.404       .  A
C486       H1419   1.084       .  S
C487        C488   1.415       .  A
C487        C494   1.444       .  S
C488        C489   1.398       .  A
C489        C490   1.403       .  A
C489        H492   1.085       .  S
C490        C493   1.444       .  S
H491       C1414   1.084       .  S
C493        N495   1.157       .  T
C494        N496   1.157       .  T
C497        C498   1.406       .  A
C497        C502   1.402       .  A
C498        C499   1.401       .  A
C498        H503   1.090       .  S
C499        C500   1.412       .  A
C499        C506   1.443       .  S
C500        C501   1.414       .  A
C501        C502   1.401       .  A
C501        H504   1.089       .  S
C502        C505   1.443       .  S
C505       N1435   1.157       .  T
C506        N508   1.157       .  T
N507       C1433   1.157       .  T
C509        C510   1.402       .  A
C509        C514   1.414       .  A
C510        C511   1.404       .  A
C510        H515   1.085       .  S
C511        C512   1.416       .  A
C511        C518   1.444       .  S
C512        C513   1.406       .  A
C513        C514   1.406       .  A
C513        H516   1.085       .  S
C514        C517   1.444       .  S
C517        N519   1.157       .  T
C518        N520   1.157       .  T
C521        C522   1.413       .  A
C521        C526   1.406       .  A
C522        C523   1.401       .  A
C522        H527   1.085       .  S
C523        C524   1.405       .  A
C523        C530   1.444       .  S
C524        C525   1.411       .  A
C525        C526   1.402       .  A
C525        H528   1.085       .  S
C526        C529   1.443       .  S
C529        N531   1.157       .  T
C530        N532   1.157       .  T
C533        C534   1.414       .  A
C533        C538   1.407       .  A
C534        C535   1.402       .  A
C534        H539   1.085       .  S
C535        C536   1.405       .  A
C535        C542   1.444       .  S
C536        C537   1.410       .  A
C537        C538   1.404       .  A
C537        H540   1.085       .  S
C538       C1469   1.443       .  S
C541       C1466   1.443       .  S
C541        N543   1.157       .  T
C542        N544   1.157       .  T
C545        C546   1.392       .  A
C545        C550   1.419       .  A
C546        C547   1.398       .  A
C546        H551   1.085       .  S
C547        C548   1.426       .  A
C547        C554   1.441       .  S
C548        C549   1.403       .  A
C549        C550   1.406       .  A
C549        H552   1.084       .  S
C550        C553   1.445       .  S
C553        N555   1.157       .  T
C554        N556   1.156   1_655  T
C557        C558   1.418       .  A
C557        C562   1.410   1_655  A
C558       C1487   1.409       .  A
C558        H563   1.084       .  S
C559        C560   1.411   1_655  A
C559       C1486   1.409   1_554  A
C559        C566   1.444       .  S
C560        C561   1.415       .  A
C561       C1490   1.407   1_554  A
C561        H564   1.085       .  S
C562       C1489   1.408       .  A
C562        C565   1.443       .  S
C565        N567   1.157       .  T
C566        N568   1.157       .  T
C569        C570   1.416   1_655  A
C569        C574   1.404       .  A
C570        C571   1.397       .  A
C570        H575   1.086       .  S
C571        C572   1.405       .  A
C571        C578   1.443       .  S
C572        C573   1.414   1_455  A
C573        C574   1.396       .  A
C573        H576   1.086       .  S
C574        C577   1.442       .  S
C577        N579   1.157       .  T
C578        N580   1.157       .  T
C581        C582   1.408       .  A
C581        C586   1.403       .  A
C582        C583   1.403       .  A
C582        H587   1.085       .  S
C583        C584   1.410       .  A
C583        C590   1.443       .  S
C584        C585   1.413       .  A
C585        C586   1.402       .  A
C585        H588   1.084       .  S
C586        C589   1.444       .  S
C589        N591   1.157       .  T
C590        N592   1.157       .  T
C593        C594   1.401       .  A
C593        C598   1.425       .  A
C594        C595   1.403       .  A
C594        H599   1.085       .  S
C595        C596   1.417       .  A
C595        C602   1.445       .  S
C596        C597   1.394       .  A
C597        C598   1.399       .  A
C597        H600   1.085       .  S
C598        C601   1.445       .  S
C601        N603   1.157       .  T
C602        N604   1.157       .  T
C605        C606   1.417       .  A
C605        C610   1.410       .  A
C606        C607   1.404       .  A
C606        H611   1.084       .  S
C607        C608   1.409       .  A
C607        C614   1.444       .  S
C608        C609   1.417       .  A
C609        C610   1.408       .  A
C609        H612   1.084       .  S
C610        C613   1.443       .  S
C613        N615   1.157       .  T
C614        N616   1.157       .  T
C617        C618   1.402       .  A
C617        C622   1.414       .  A
C618        C619   1.401       .  A
C618        H623   1.085       .  S
C619        C620   1.413       .  A
C619        C626   1.444       .  S
C620        C621   1.401       .  A
C621        C622   1.399       .  A
C621        H624   1.085       .  S
C622        C625   1.444       .  S
C625        N627   1.157       .  T
C626        N628   1.157       .  T
C629        C630   1.397       .  A
C629        C634   1.422       .  A
C630        C631   1.404       .  A
C630        H635   1.085       .  S
C631        C632   1.429       .  A
C631        C638   1.446       .  S
C632        C633   1.399       .  A
C633        C634   1.405       .  A
C633        H636   1.085       .  S
C634        C637   1.442   1_455  S
C637        N639   1.156       .  T
C638        N640   1.158       .  T
C641        C642   1.416       .  A
C641        C646   1.409       .  A
C642        C643   1.402       .  A
C642        H647   1.084       .  S
C643        C644   1.402       .  A
C643        C650   1.444       .  S
C644        C645   1.409       .  A
C645        C646   1.403       .  A
C645        H648   1.085       .  S
C646        C649   1.443       .  S
C649        N651   1.157       .  T
C650        N652   1.157       .  T
C653        C654   1.411       .  A
C653        C658   1.404       .  A
C654        C655   1.401       .  A
C654        H659   1.085       .  S
C655        C656   1.406       .  A
C655        C662   1.444       .  S
C656        C657   1.412       .  A
C657        C658   1.400       .  A
C657        H660   1.085       .  S
C658        C661   1.443       .  S
C661        N663   1.157       .  T
C662        N664   1.157       .  T
C665        C666   1.400       .  A
C665        C670   1.421       .  A
C666        C667   1.404       .  A
C666        H671   1.085       .  S
C667        C668   1.419       .  A
C667        C674   1.445       .  S
C668        C669   1.398       .  A
C669        C670   1.401       .  A
C669        H672   1.085       .  S
C670        C673   1.446       .  S
C673        N675   1.157       .  T
C674        N676   1.157       .  T
C677        C678   1.410       .  A
C677        C682   1.404       .  A
C678        C679   1.398       .  A
C678        H683   1.086       .  S
C679        C680   1.406       .  A
C679        C686   1.437       .  S
C680        C681   1.410       .  A
C681        C682   1.395       .  A
C681        H684   1.086       .  S
C682        C685   1.440       .  S
C685        N687   1.156       .  T
C686        N688   1.154       .  T
C689        C690   1.412       .  A
C689        C694   1.403       .  A
C690        C691   1.404       .  A
C690        H695   1.085       .  S
C691        C692   1.407       .  A
C691        C698   1.442       .  S
C692        C693   1.417       .  A
C693        C694   1.402       .  A
C693        H696   1.084       .  S
C694        C697   1.444       .  S
C697        N699   1.157       .  T
C698        N700   1.157       .  T
C701        C702   1.395       .  A
C701        C706   1.420       .  A
C702        C703   1.399       .  A
C702        H707   1.085       .  S
C703        C704   1.421       .  A
C703        C710   1.444       .  S
C704        C705   1.399       .  A
C705        C706   1.399       .  A
C705        H708   1.085       .  S
C706        C709   1.446       .  S
C709       N1639   1.158       .  T
C710        N712   1.157       .  T
N711       C1637   1.158       .  T
C713        C714   1.396       .  A
C713        C718   1.424       .  A
C714        C715   1.405       .  A
C714        H719   1.085       .  S
C715        C716   1.424       .  A
C715        C722   1.439       .  S
C716        C717   1.398       .  A
C717        C718   1.402       .  A
C717        H720   1.085       .  S
C718        C721   1.445       .  S
C721        N723   1.157       .  T
C722        N724   1.155       .  T
C725        C726   1.402       .  A
C725        C730   1.427       .  A
C726        C727   1.404       .  A
C726        H731   1.085       .  S
C727        C728   1.417       .  A
C727        C734   1.445       .  S
C728        C729   1.394       .  A
C729        C730   1.400       .  A
C729        H732   1.085       .  S
C730        C733   1.445       .  S
C733        N735   1.157   1_545  T
C734        N736   1.157       .  T
C737        C738   1.395       .  A
C737        C742   1.420       .  A
C738        C739   1.401       .  A
C738        H743   1.085       .  S
C739        C740   1.427       .  A
C739        C746   1.445       .  S
C740        C741   1.399       .  A
C741        C742   1.403       .  A
C741        H744   1.085       .  S
C742        C745   1.442       .  S
C745        N747   1.156       .  T
C746        N748   1.157       .  T
C749        C750   1.416       .  A
C749        C754   1.411       .  A
C750        C751   1.407       .  A
C750        H755   1.085       .  S
C751        C752   1.411       .  A
C751        C758   1.444       .  S
C752        C753   1.417       .  A
C753        C754   1.411       .  A
C753        H756   1.084       .  S
C754        C757   1.443       .  S
C757        N759   1.157       .  T
C758        N760   1.157       .  T
C761        C762   1.417       .  A
C761        C766   1.405       .  A
C762        C763   1.396       .  A
C762        H767   1.085       .  S
C763        C764   1.403       .  A
C763        C770   1.443       .  S
C764        C765   1.415       .  A
C765        C766   1.398       .  A
C765        H768   1.085       .  S
C766        C769   1.442       .  S
C769        N771   1.157       .  T
C770        N772   1.157       .  T
C773        C774   1.415       .  A
C773        C778   1.409       .  A
C774        C775   1.406       .  A
C774        H779   1.085       .  S
C775        C776   1.407       .  A
C775        C782   1.443       .  S
C776        C777   1.412       .  A
C777        C778   1.406       .  A
C777        H780   1.085       .  S
C778        C781   1.443       .  S
C781        N783   1.157       .  T
C782        N784   1.157       .  T
C785        C786   1.417       .  A
C785        C790   1.409       .  A
C786        C787   1.400       .  A
C786        H791   1.084       .  S
C787        C788   1.400       .  A
C787        C794   1.443       .  S
C788        C789   1.409       .  A
C789        C790   1.399       .  A
C789        H792   1.085       .  S
C790        C793   1.444       .  S
C793        N795   1.157       .  T
C794        N796   1.157       .  T
C797        C798   1.410       .  A
C797        C802   1.405       .  A
C798        C799   1.406       .  A
C798        H803   1.085       .  S
C799        C800   1.409       .  A
C799       C1734   1.443       .  S
C800       C1182   1.487       .  S
C800        C801   1.411       .  A
C801        C802   1.401       .  A
C801        H804   1.085       .  S
C802        C805   1.444       .  S
C805        N807   1.157       .  T
C806       C1727   1.443       .  S
C806        N808   1.157   1_556  T
C809        C810   1.418   1_445  A
C809        C814   1.408       .  A
C810       C1739   1.409       .  A
C810        H815   1.084       .  S
C811        C812   1.409   1_556  A
C811       C1738   1.408   1_655  A
C811        C818   1.443       .  S
C812        C813   1.418   1_565  A
C813       C1742   1.405   1_655  A
C813        H816   1.084       .  S
C814       C1741   1.405   1_455  A
C814        C817   1.444       .  S
C817        N819   1.157       .  T
C818        N820   1.157       .  T
C821        C822   1.415   1_455  A
C821        C826   1.404   1_545  A
C822        C823   1.397       .  A
C822        H827   1.086       .  S
C823        C824   1.404   1_545  A
C823        C830   1.443       .  S
C824        C825   1.414   1_655  A
C825        C826   1.394       .  A
C825        H828   1.086       .  S
C826        C829   1.442       .  S
C829        N831   1.156       .  T
C830        N832   1.157       .  T
C833        C834   1.415       .  A
C833        C838   1.408       .  A
C834        C835   1.405       .  A
C834        H839   1.085       .  S
C835        C836   1.406       .  A
C835        C842   1.444       .  S
C836        C837   1.412       .  A
C837        C838   1.402       .  A
C837        H840   1.085       .  S
C838        C841   1.443       .  S
C841        N843   1.157       .  T
C842        N844   1.157       .  T
C845        C846   1.399       .  A
C845        C850   1.425       .  A
C846        C847   1.402       .  A
C846        H851   1.085       .  S
C847        C848   1.419       .  A
C847        C854   1.445       .  S
C848        C849   1.396       .  A
C849        C850   1.402       .  A
C849        H852   1.085       .  S
C850        C853   1.445       .  S
C853        N855   1.157   1_565  T
C854        N856   1.157       .  T
C857        C858   1.405       .  A
C857        C862   1.404       .  A
C858        C859   1.405       .  A
C858        H863   1.085       .  S
C859        C860   1.417       .  A
C859        C866   1.443       .  S
C860        C861   1.413       .  A
C861        C862   1.403       .  A
C861        H864   1.084       .  S
C862        C865   1.442       .  S
C865        N867   1.156       .  T
C866        N868   1.157       .  T
C869        C870   1.416   1_545  A
C869        C874   1.410       .  A
C870        C871   1.403       .  A
C870        H875   1.084       .  S
C871        C872   1.411       .  A
C871        C878   1.444       .  S
C872        C873   1.416   1_565  A
C873        C874   1.407       .  A
C873        H876   1.084       .  S
C874        C877   1.443       .  S
C877        N879   1.157       .  T
C878        N880   1.157       .  T
C881        C882   1.403   1_545  A
C881       C1814   1.413       .  A
C882        C883   1.403       .  A
C882        H887   1.085       .  S
C883       C1812   1.413       .  A
C883        C890   1.445       .  S
C884        C885   1.403   1_565  A
C884       C1811   1.413       .  A
C885        C886   1.401       .  A
C885        H888   1.085       .  S
C886       C1809   1.412   1_554  A
C886        C889   1.444       .  S
C889        N891   1.157       .  T
C890        N892   1.157       .  T
C893        C894   1.415       .  A
C893        C898   1.414       .  A
C894        C895   1.404       .  A
C894        H899   1.084       .  S
C895        C896   1.404       .  A
C895        C902   1.443       .  S
C896        C897   1.407       .  A
C897        C898   1.405       .  A
C897        H900   1.085       .  S
C898        C901   1.443       .  S
C901        N903   1.157       .  T
C902        N904   1.157       .  T
C905        C906   1.404       .  A
C905        C910   1.402       .  A
C906        C907   1.402       .  A
C906        H911   1.085       .  S
C907        C908   1.416       .  A
C907        C914   1.444       .  S
C908        C909   1.415       .  A
C909        C910   1.403       .  A
C909        H912   1.084       .  S
C910        C913   1.443       .  S
C913        N915   1.157       .  T
C914        N916   1.157       .  T
C917        C918   1.402       .  A
C917        C922   1.417       .  A
C918        C919   1.402       .  A
C918        H923   1.085       .  S
C919        C920   1.414       .  A
C919        C926   1.441       .  S
C920        C921   1.403       .  A
C921        C922   1.404       .  A
C921        H924   1.085       .  S
C922        C925   1.445       .  S
C925        N927   1.157       .  T
C926        N928   1.156       .  T
O929       Cr947   2.022       .  S
O929        C937   1.271       .  A
O930       Cr947   1.937       .  S
O930        C931   1.242       .  A
C931        O932   1.275       .  A
C931       C1812   1.470       .  S
O932       Cr948   2.065       .  S
O933       Cr948   1.950       .  S
O933        C934   1.253       .  A
C934        O935   1.277       .  A
C934       C1785   1.474       .  S
O935       Cr949   2.055       .  S
O936       Cr949   1.953       .  S
O936        C937   1.252       .  A
C937       C1845   1.485       .  S
O938       Cr947   1.951       .  S
O938        C946   1.257       .  A
O939       Cr947   2.054   1_545  S
O939        C940   1.277       .  A
C940        O941   1.257   1_545  A
C940       C1821   1.496       .  S
O941       Cr948   1.957       .  S
O942       Cr948   2.051       .  S
O942        C943   1.277       .  A
C943        O944   1.254       .  A
C943       C1833   1.475       .  S
O944       Cr949   1.956       .  S
O945       Cr949   2.055       .  S
O945        C946   1.280       .  A
C946       C1800   1.503       .  S
Cr947       O950   1.751       .  S
Cr948       O950   1.759       .  S
Cr949       O950   1.761       .  S
O951       Cr969   2.026   1_655  S
O951        C959   1.271       .  A
O952       Cr969   1.920       .  S
O952        C953   1.241       .  A
C953        O954   1.276       .  A
C953       C1749   1.477       .  S
O954       Cr970   2.065       .  S
O955       Cr970   1.935       .  S
O955        C956   1.250       .  A
C956        O957   1.277       .  A
C956       C1716   1.477       .  S
O957       Cr971   2.058       .  S
O958       Cr971   1.958       .  S
O958        C959   1.252   1_455  A
C959       C1761   1.488       .  S
O960       Cr969   1.939       .  S
O960        C968   1.255       .  A
O961       Cr969   2.055   1_565  S
O961        C962   1.275       .  A
C962        O963   1.250   1_565  A
C962       C1773   1.484       .  S
O963       Cr970   1.948       .  S
O964       Cr970   2.043       .  S
O964        C965   1.277       .  A
C965        O966   1.259       .  A
C965       C1725   1.487       .  S
O966       Cr971   1.958       .  S
O967       Cr971   2.073       .  S
O967        C968   1.286       .  A
C968       C1737   1.503       .  S
Cr969       O972   1.753       .  S
Cr970       O972   1.751       .  S
Cr971       O972   1.758       .  S
O973       Cr991   2.018       .  S
O973        C981   1.268       .  A
O974       Cr991   1.922       .  S
O974        C975   1.242       .  A
C975        O976   1.278       .  A
C975       C1689   1.481       .  S
O976       Cr992   2.071       .  S
O977       Cr992   1.947       .  S
O977        C978   1.255       .  A
C978        O979   1.280       .  A
C978       C1704   1.495       .  S
O979       Cr993   2.063       .  S
O980       Cr993   1.964       .  S
O980        C981   1.251       .  A
C981       C1665   1.481       .  S
O982       Cr991   1.942       .  S
O982        C990   1.256       .  A
O983       Cr991   2.042       .  S
O983        C984   1.273       .  A
C984        O985   1.255       .  A
C984       C1836   1.496       .  S
O985       Cr992   1.961       .  S
O986       Cr992   2.044       .  S
O986        C987   1.277       .  A
C987        O988   1.255       .  A
C987       C1776   1.481       .  S
O988       Cr993   1.948       .  S
O989       Cr993   2.082       .  S
O989        C990   1.287       .  A
C990       C1677   1.507       .  S
Cr991       O994   1.751       .  S
Cr992       O994   1.760       .  S
Cr993       O994   1.756       .  S
O995      Cr1013   1.964       .  S
O995       C1003   1.253   1_655  A
O996      Cr1013   2.069       .  S
O996        C997   1.281       .  A
C997        O998   1.250       .  A
C997       C1641   1.489       .  S
O998      Cr1014   1.936       .  S
O999      Cr1014   2.065       .  S
O999       C1000   1.274       .  A
C1000      O1001   1.240       .  A
C1000      C1752   1.476       .  S
O1001     Cr1015   1.919       .  S
O1002     Cr1015   2.027   1_455  S
O1002      C1003   1.271       .  A
C1003      C1701   1.496       .  S
O1004     Cr1013   2.080       .  S
O1004      C1012   1.288       .  A
O1005     Cr1013   1.954       .  S
O1005      C1006   1.257       .  A
C1006      O1007   1.275       .  A
C1006      C1632   1.479       .  S
O1007     Cr1014   2.041       .  S
O1008     Cr1014   1.946       .  S
O1008      C1009   1.249   1_565  A
C1009      O1010   1.277       .  A
C1009      C1653   1.490       .  S
O1010     Cr1015   2.057   1_545  S
O1011     Cr1015   1.936       .  S
O1011      C1012   1.254       .  A
C1012      C1740   1.505       .  S
Cr1013     O1016   1.754       .  S
Cr1014     O1016   1.752       .  S
Cr1015     O1016   1.747       .  S
O1017     Cr1035   1.947       .  S
O1017      C1025   1.251       .  A
O1018     Cr1035   2.061       .  S
O1018      C1019   1.279       .  A
C1019      O1020   1.253       .  A
C1019      C1764   1.490       .  S
O1020     Cr1036   1.942       .  S
O1021     Cr1036   2.073       .  S
O1021      C1022   1.278       .  A
C1022      O1023   1.240       .  A
C1022      C1608   1.478       .  S
O1023     Cr1037   1.914       .  S
O1024     Cr1037   2.028       .  S
O1024      C1025   1.273       .  A
C1025      C1617   1.496       .  S
O1026     Cr1035   2.069       .  S
O1026      C1034   1.283       .  A
O1027     Cr1035   1.946       .  S
O1027      C1028   1.254       .  A
C1028      O1029   1.277       .  A
C1028      C1656   1.473       .  S
O1029     Cr1036   2.047       .  S
O1030     Cr1036   1.950       .  S
O1030      C1031   1.251       .  A
C1031      O1032   1.275       .  A
C1031      C1584   1.482       .  S
O1032     Cr1037   2.051       .  S
O1033     Cr1037   1.933       .  S
O1033      C1034   1.252       .  A
C1034      C1593   1.487       .  S
Cr1035     O1038   1.758       .  S
Cr1036     O1038   1.753       .  S
Cr1037     O1038   1.749       .  S
O1039     Cr1057   1.948       .  S
O1039      C1047   1.252       .  A
O1040     Cr1057   2.072       .  S
O1040      C1041   1.282       .  A
C1041      O1042   1.250       .  A
C1041      C1560   1.498       .  S
O1042     Cr1058   1.940       .  S
O1043     Cr1058   2.067       .  S
O1043      C1044   1.276       .  A
C1044      O1045   1.245       .  A
C1044      C1545   1.472       .  S
O1045     Cr1059   1.938       .  S
O1046     Cr1059   2.023       .  S
O1046      C1047   1.271       .  A
C1047      C1713   1.490       .  S
O1048     Cr1057   2.073       .  S
O1048      C1056   1.284       .  A
O1049     Cr1057   1.950       .  S
O1049      C1050   1.255       .  A
C1050      O1051   1.276       .  A
C1050      C1572   1.481       .  S
O1051     Cr1058   2.049       .  S
O1052     Cr1058   1.949       .  S
O1052      C1053   1.251       .  A
C1053      O1054   1.276       .  A
C1053      C1521   1.491       .  S
O1054     Cr1059   2.060       .  S
O1055     Cr1059   1.942       .  S
O1055      C1056   1.256       .  A
C1056      C1533   1.503       .  S
Cr1057     O1060   1.761       .  S
Cr1058     O1060   1.747       .  S
Cr1059     O1060   1.754       .  S
O1061     Cr1079   1.952       .  S
O1061      C1069   1.251   1_455  A
O1062     Cr1079   2.069       .  S
O1062      C1063   1.279       .  A
C1063      O1064   1.248       .  A
C1063      C1668   1.490       .  S
O1064     Cr1080   1.937       .  S
O1065     Cr1080   2.063       .  S
O1065      C1066   1.274       .  A
C1066      O1067   1.238       .  A
C1066      C1500   1.479       .  S
O1067     Cr1081   1.924       .  S
O1068     Cr1081   2.026   1_655  S
O1068      C1069   1.274       .  A
C1069      C1476   1.497       .  S
O1070     Cr1079   2.071       .  S
O1070      C1078   1.285       .  A
O1071     Cr1079   1.948       .  S
O1071      C1072   1.257       .  A
C1072      O1073   1.277       .  A
C1072      C1509   1.473       .  S
O1073     Cr1080   2.047       .  S
O1074     Cr1080   1.942       .  S
O1074      C1075   1.252       .  A
C1075      O1076   1.279       .  A
C1075      C1569   1.489       .  S
O1076     Cr1081   2.065       .  S
O1077     Cr1081   1.947       .  S
O1077      C1078   1.256       .  A
C1078      C1488   1.505       .  S
Cr1079     O1082   1.760       .  S
Cr1080     O1082   1.750       .  S
Cr1081     O1082   1.747       .  S
O1083     Cr1101   2.024   1_455  S
O1083      C1091   1.269       .  A
O1084     Cr1101   1.917       .  S
O1084      C1085   1.241       .  A
C1085      O1086   1.276       .  A
C1085      C1497   1.479       .  S
O1086     Cr1102   2.065       .  S
O1087     Cr1102   1.937       .  S
O1087      C1088   1.250       .  A
C1088      O1089   1.276       .  A
C1088      C1620   1.479       .  S
O1089     Cr1103   2.055       .  S
O1090     Cr1103   1.971       .  S
O1090      C1091   1.253   1_655  A
C1091      C1557   1.488       .  S
O1092     Cr1101   1.945       .  S
O1092      C1100   1.256       .  A
O1093     Cr1101   2.043       .  S
O1093      C1094   1.273       .  A
C1094      O1095   1.253       .  A
C1094      C1449   1.482       .  S
O1095     Cr1102   1.950       .  S
O1096     Cr1102   2.042       .  S
O1096      C1097   1.277       .  A
C1097      O1098   1.259       .  A
C1097      C1464   1.480       .  S
O1098     Cr1103   1.956       .  S
O1099     Cr1103   2.077       .  S
O1099      C1100   1.288       .  A
C1100      C1485   1.505       .  S
Cr1101     O1104   1.755       .  S
Cr1102     O1104   1.758       .  S
Cr1103     O1104   1.759       .  S
O1105     Cr1123   1.967   1_554  S
O1106      C1107   1.277       .  A
C1107      O1108   1.252       .  A
C1107      C1437   1.481       .  S
O1108     Cr1124   1.950       .  S
O1109     Cr1124   2.063       .  S
O1109      C1110   1.276       .  A
C1110      O1111   1.243       .  A
C1110      C1692   1.478       .  S
O1111     Cr1125   1.928       .  S
O1112     Cr1125   2.017       .  S
O1112      C1113   1.269       .  A
C1113      C1788   1.495       .  S
O1114     Cr1123   2.067       .  S
O1114      C1122   1.285       .  A
O1115     Cr1123   1.947       .  S
O1115      C1116   1.255       .  A
C1116      O1117   1.276       .  A
C1116      C1425   1.470       .  S
O1118     Cr1124   1.955       .  S
O1118      C1119   1.255       .  A
C1119      O1120   1.273       .  A
C1119      C1512   1.488       .  S
O1120     Cr1125   2.043       .  S
O1121      C1122   1.258       .  A
C1122      C1680   1.506       .  S
Cr1124     O1126   1.759       .  S
Cr1125     O1126   1.752       .  S
O1127     Cr1145   2.032   1_554  S
O1127      C1135   1.274   1_554  A
O1128     Cr1145   1.924       .  S
O1128      C1129   1.243       .  A
C1129      O1130   1.276       .  A
C1129      C1605   1.475       .  S
O1130     Cr1146   2.061       .  S
O1131     Cr1146   1.935       .  S
O1131      C1132   1.250       .  A
C1132      O1133   1.278       .  A
C1132      C1389   1.482       .  S
O1134     Cr1147   1.949       .  S
C1135      C1413   1.492       .  S
O1136      C1144   1.253       .  A
O1137     Cr1145   2.057       .  S
O1137      C1138   1.276       .  A
C1138      O1139   1.252       .  A
C1138      C1461   1.490       .  S
O1139     Cr1146   1.949       .  S
O1140      C1141   1.277       .  A
C1141      O1142   1.254       .  A
C1141      C1401   1.473       .  S
O1142     Cr1147   1.943       .  S
O1143     Cr1147   2.064       .  S
O1143      C1144   1.282       .  A
C1144      C1596   1.486       .  S
Cr1147     O1148   1.759       .  S
O1149     Cr1167   1.944       .  S
O1149      C1157   1.250       .  A
O1150     Cr1167   2.059       .  S
O1150      C1151   1.278       .  A
C1151      O1152   1.254       .  A
C1151      C1377   1.479       .  S
O1152     Cr1168   1.954       .  S
O1153     Cr1168   2.062       .  S
O1153      C1154   1.274       .  A
C1154      O1155   1.243       .  A
C1154      C1365   1.464       .  S
O1155     Cr1169   1.932       .  S
O1156     Cr1169   2.021       .  S
O1156      C1157   1.269       .  A
C1157      C1392   1.481       .  S
O1158     Cr1167   2.068       .  S
O1158      C1166   1.284       .  A
O1159     Cr1167   1.950       .  S
O1159      C1160   1.255       .  A
C1160      O1161   1.276       .  A
C1160      C1524   1.479       .  S
O1161     Cr1168   2.044       .  S
O1162     Cr1168   1.954       .  S
O1162      C1163   1.255       .  A
C1163      O1164   1.274       .  A
C1163      C1428   1.489       .  S
O1164     Cr1169   2.045       .  S
O1165     Cr1169   1.940       .  S
O1165      C1166   1.254       .  A
C1166      C1353   1.503       .  S
Cr1167     O1170   1.760       .  S
Cr1168     O1170   1.755       .  S
Cr1169     O1170   1.755       .  S
O1171     Cr1189   2.020   1_554  S
O1171      C1179   1.270   1_554  A
O1172     Cr1189   1.942       .  S
O1172      C1173   1.245       .  A
C1173      O1174   1.274       .  A
C1173      C1548   1.470       .  S
O1174     Cr1190   2.059       .  S
O1175     Cr1190   1.944       .  S
O1175      C1176   1.252       .  A
C1176      O1177   1.275   1_556  A
C1176      C1341   1.471       .  S
O1178     Cr1191   1.971       .  S
C1179      C1380   1.490       .  S
O1180      C1188   1.257       .  A
O1181     Cr1189   2.049       .  S
O1183     Cr1190   1.953       .  S
O1184      C1185   1.275       .  A
C1185      O1186   1.258       .  A
C1185      C1824   1.481       .  S
O1186     Cr1191   1.960       .  S
O1187     Cr1191   2.057       .  S
O1187      C1188   1.282       .  A
C1188      C1536   1.499       .  S
Cr1191     O1192   1.765       .  S
O1193     Cr1211   1.945       .  S
O1193      C1201   1.251       .  A
O1194     Cr1211   2.062       .  S
O1194      C1195   1.280       .  A
C1195      O1196   1.251       .  A
C1195      C1416   1.475       .  S
O1196     Cr1212   1.939       .  S
O1197     Cr1212   2.072       .  S
O1197      C1198   1.277       .  A
C1198      O1199   1.244       .  A
C1198      C1809   1.471       .  S
O1199     Cr1213   1.936       .  S
O1200     Cr1213   2.022       .  S
O1200      C1201   1.271       .  A
C1201      C1344   1.477       .  S
O1202     Cr1211   2.062       .  S
O1202      C1210   1.282       .  A
O1203     Cr1211   1.943       .  S
O1203      C1204   1.251       .  A
C1204      O1205   1.276       .  A
C1204      C1581   1.476       .  S
O1205     Cr1212   2.046       .  S
O1206     Cr1212   1.945       .  S
O1206      C1207   1.249   1_545  A
C1207      O1208   1.274       .  A
C1207      C1332   1.477       .  S
O1208     Cr1213   2.049   1_565  S
O1209     Cr1213   1.943       .  S
O1209      C1210   1.255       .  A
C1210      C1797   1.503       .  S
Cr1211     O1214   1.759       .  S
Cr1212     O1214   1.754       .  S
Cr1213     O1214   1.753       .  S
O1215     Cr1233   1.949       .  S
O1216      C1217   1.279       .  A
C1217      O1218   1.251       .  A
C1217      C1848   1.476       .  S
O1218     Cr1234   1.945       .  S
O1219     Cr1234   2.071       .  S
O1219      C1220   1.276       .  A
C1220      O1221   1.238       .  A
C1220      C1320   1.471       .  S
O1221     Cr1235   1.926       .  S
O1222     Cr1235   2.020       .  S
O1222      C1223   1.270       .  A
C1223      C1293   1.478       .  S
O1224     Cr1233   2.067       .  S
O1224      C1232   1.283       .  A
O1225     Cr1233   1.942       .  S
O1225      C1226   1.253       .  A
C1226      O1227   1.279       .  A
C1226      C1329   1.475       .  S
O1228     Cr1234   1.947       .  S
O1228      C1229   1.252       .  A
C1229      O1230   1.275       .  A
C1229      C1629   1.480       .  S
O1230     Cr1235   2.050       .  S
O1231      C1232   1.253       .  A
C1232      C1305   1.488       .  S
Cr1234     O1236   1.751       .  S
Cr1235     O1236   1.744       .  S
O1237     Cr1255   2.021       .  S
O1237      C1245   1.270       .  A
O1238     Cr1255   1.924       .  S
O1238      C1239   1.240       .  A
C1239      O1240   1.279       .  A
C1239      C1317   1.470       .  S
O1240     Cr1256   2.071       .  S
O1241     Cr1256   1.942       .  S
O1241      C1242   1.254       .  A
C1242      O1243   1.277       .  A
C1242      C1473   1.480       .  S
O1243     Cr1257   2.050       .  S
O1244     Cr1257   1.970       .  S
O1244      C1245   1.253       .  A
C1245      C1644   1.492       .  S
O1246     Cr1255   1.938       .  S
O1246      C1254   1.254       .  A
O1247     Cr1255   2.049       .  S
O1247      C1248   1.273       .  A
C1248      O1249   1.251       .  A
C1248      C1281   1.481       .  S
O1249     Cr1256   1.962       .  S
O1250     Cr1256   2.040       .  S
O1250      C1251   1.275       .  A
C1251      O1252   1.257       .  A
C1251      C1452   1.478       .  S
O1252     Cr1257   1.951       .  S
O1253     Cr1257   2.069       .  S
O1253      C1254   1.283       .  A
C1254      C1308   1.488       .  S
Cr1255     O1258   1.753       .  S
Cr1256     O1258   1.758       .  S
Cr1257     O1258   1.757       .  S
O1259     Cr1277   2.020       .  S
O1259      C1267   1.270       .  A
O1260     Cr1277   1.932       .  S
O1260      C1261   1.244       .  A
C1261      O1262   1.273       .  A
C1261      C1368   1.460       .  S
O1262     Cr1278   2.055       .  S
O1263     Cr1278   1.932       .  S
O1263      C1264   1.251       .  A
C1264      O1265   1.280       .  A
C1264      C1296   1.483       .  S
O1265     Cr1279   2.059       .  S
O1266     Cr1279   1.965       .  S
O1266      C1267   1.254       .  A
C1267      C1440   1.489       .  S
O1268     Cr1277   1.937       .  S
O1268      C1276   1.254       .  A
O1269     Cr1277   2.044       .  S
O1269      C1270   1.273       .  A
C1270      O1271   1.252       .  A
C1270      C1404   1.480       .  S
O1271     Cr1278   1.951       .  S
O1272     Cr1278   2.039       .  S
O1272      C1273   1.273       .  A
C1273      O1274   1.256       .  A
C1273      C1284   1.486       .  S
O1274     Cr1279   1.966       .  S
O1275     Cr1279   2.065       .  S
O1275      C1276   1.283       .  A
C1276      C1356   1.502       .  S
Cr1277     O1280   1.751       .  S
Cr1278     O1280   1.755       .  S
Cr1279     O1280   1.757       .  S
C1281      C1282   1.403       .  A
C1281      C1286   1.412       .  A
C1282      C1283   1.398       .  A
C1282      H1287   1.083       .  S
C1283      C1284   1.413       .  A
C1283      C1290   1.442       .  S
C1284      C1285   1.408       .  A
C1285      C1286   1.407       .  A
C1285      H1288   1.085       .  S
C1286      C1289   1.443       .  S
C1289      N1291   1.157       .  T
C1290      N1292   1.156       .  T
C1293      C1294   1.412       .  A
C1293      C1298   1.403       .  A
C1294      C1295   1.401       .  A
C1294      H1299   1.085       .  S
C1295      C1296   1.405       .  A
C1295      C1302   1.443       .  S
C1296      C1297   1.415       .  A
C1297      C1298   1.399       .  A
C1297      H1300   1.085       .  S
C1301      N1303   1.157       .  T
C1302      N1304   1.157       .  T
C1305      C1306   1.399       .  A
C1305      C1310   1.422       .  A
C1306      C1307   1.403       .  A
C1306      H1311   1.085       .  S
C1307      C1308   1.419       .  A
C1307      C1314   1.443       .  S
C1308      C1309   1.400       .  A
C1309      C1310   1.407       .  A
C1309      H1312   1.085       .  S
C1310      C1313   1.445       .  S
C1313      N1315   1.157       .  T
C1314      N1316   1.156       .  T
C1317      C1318   1.390       .  A
C1317      C1322   1.426       .  A
C1318      C1319   1.396       .  A
C1318      H1323   1.085       .  S
C1319      C1320   1.426       .  A
C1319      C1326   1.447       .  S
C1320      C1321   1.390       .  A
C1321      C1322   1.397       .  A
C1321      H1324   1.085       .  S
C1322      C1325   1.446       .  S
C1325      N1327   1.157       .  T
C1326      N1328   1.157       .  T
C1329      C1330   1.395       .  A
C1329      C1334   1.420       .  A
C1330      C1331   1.398       .  A
C1330      H1335   1.085       .  S
C1331      C1332   1.422       .  A
C1331      C1338   1.445       .  S
C1332      C1333   1.396       .  A
C1333      C1334   1.399       .  A
C1333      H1336   1.085       .  S
C1334      C1337   1.445       .  S
C1337      N1339   1.157       .  T
C1338      N1340   1.157   1_565  T
C1341      C1342   1.402       .  A
C1341      C1346   1.414       .  A
C1342      C1343   1.400       .  A
C1342      H1347   1.085       .  S
C1343      C1344   1.414       .  A
C1343      C1350   1.444       .  S
C1344      C1345   1.401       .  A
C1345      C1346   1.401       .  A
C1345      H1348   1.085       .  S
C1346      C1349   1.441       .  S
C1349      N1351   1.156   1_556  T
C1350      N1352   1.157       .  T
C1353      C1354   1.419       .  A
C1353      C1358   1.409       .  A
C1354      C1355   1.406       .  A
C1354      H1359   1.084       .  S
C1355      C1356   1.409       .  A
C1355      C1362   1.444       .  S
C1356      C1357   1.417       .  A
C1357      C1358   1.403       .  A
C1357      H1360   1.084       .  S
C1358      C1361   1.443       .  S
C1361      N1363   1.157       .  T
C1362      N1364   1.157       .  T
C1365      C1366   1.402       .  A
C1366      H1371   1.084       .  S
C1367      C1368   1.412       .  A
C1367      C1374   1.445       .  S
C1368      C1369   1.401       .  A
C1369      C1370   1.398       .  A
C1369      H1372   1.085       .  S
C1370      C1373   1.443       .  S
C1373      N1375   1.156       .  T
C1377      C1378   1.403       .  A
C1377      C1382   1.412       .  A
C1378      C1379   1.407       .  A
C1378      H1383   1.085       .  S
C1379      C1380   1.417       .  A
C1379      C1386   1.444   1_556  S
C1380      C1381   1.403       .  A
C1381      C1382   1.402       .  A
C1382      C1385   1.442       .  S
C1385      N1387   1.157       .  T
C1386      N1388   1.157       .  T
C1389      C1390   1.414       .  A
C1389      C1394   1.403       .  A
C1390      C1391   1.400       .  A
C1390      H1395   1.085       .  S
C1391      C1392   1.404       .  A
C1391      C1398   1.443       .  S
C1392      C1393   1.412       .  A
C1393      C1394   1.401       .  A
C1393      H1396   1.085       .  S
C1394      C1397   1.442       .  S
C1398      N1400   1.157       .  T
C1401      C1402   1.394       .  A
C1401      C1406   1.418       .  A
C1402      C1403   1.398       .  A
C1402      H1407   1.085       .  S
C1403      C1404   1.423       .  A
C1403      C1410   1.445       .  S
C1404      C1405   1.399       .  A
C1405      C1406   1.400       .  A
C1405      H1408   1.085       .  S
C1406      C1409   1.446       .  S
C1409      N1411   1.157       .  T
C1410      N1412   1.157       .  T
C1413      C1414   1.402       .  A
C1413      C1418   1.422       .  A
C1414      C1415   1.402       .  A
C1415      C1416   1.415       .  A
C1415      C1422   1.443       .  S
C1416      C1417   1.398       .  A
C1417      C1418   1.403       .  A
C1417      H1420   1.085       .  S
C1418      C1421   1.443       .  S
C1421      N1423   1.157   1_556  T
C1422      N1424   1.157       .  T
C1425      C1426   1.404       .  A
C1425      C1430   1.402       .  A
C1426      C1427   1.399       .  A
C1426      H1431   1.090       .  S
C1427      C1428   1.413       .  A
C1427      C1434   1.443       .  S
C1428      C1429   1.414       .  A
C1429      C1430   1.400       .  A
C1429      H1432   1.089       .  S
C1430      C1433   1.443       .  S
C1434      N1436   1.157       .  T
C1437      C1438   1.403       .  A
C1437      C1442   1.414       .  A
C1438      C1439   1.405       .  A
C1438      H1443   1.085       .  S
C1439      C1440   1.415       .  A
C1439      C1446   1.444       .  S
C1440      C1441   1.405       .  A
C1441      C1442   1.405       .  A
C1441      H1444   1.085       .  S
C1442      C1445   1.443       .  S
C1445      N1447   1.157       .  T
C1446      N1448   1.157       .  T
C1449      C1450   1.412       .  A
C1449      C1454   1.407       .  A
C1450      C1451   1.402       .  A
C1450      H1455   1.085       .  S
C1451      C1452   1.405       .  A
C1451      C1458   1.444       .  S
C1452      C1453   1.409       .  A
C1453      C1454   1.400       .  A
C1453      H1456   1.085       .  S
C1454      C1457   1.443       .  S
C1457      N1459   1.157       .  T
C1458      N1460   1.157       .  T
C1461      C1462   1.414       .  A
C1461      C1466   1.409       .  A
C1462      C1463   1.401       .  A
C1462      H1467   1.084       .  S
C1463      C1464   1.404       .  A
C1463      C1470   1.444       .  S
C1464      C1465   1.409       .  A
C1465      C1466   1.405       .  A
C1465      H1468   1.085       .  S
C1469      N1471   1.157       .  T
C1470      N1472   1.157       .  T
C1473      C1474   1.392       .  A
C1473      C1478   1.417       .  A
C1474      C1475   1.399       .  A
C1474      H1479   1.086       .  S
C1475      C1476   1.428       .  A
C1475      C1482   1.442       .  S
C1476      C1477   1.403       .  A
C1477      C1478   1.405       .  A
C1477      H1480   1.084       .  S
C1478      C1481   1.445       .  S
C1481      N1483   1.157       .  T
C1482      N1484   1.156   1_655  T
C1485      C1486   1.417       .  A
C1485      C1490   1.410   1_655  A
C1486      H1491   1.084       .  S
C1487      C1488   1.411   1_655  A
C1487      C1494   1.444       .  S
C1488      C1489   1.416       .  A
C1489      H1492   1.084       .  S
C1490      C1493   1.443       .  S
C1493      N1495   1.157       .  T
C1494      N1496   1.157       .  T
C1497      C1498   1.416   1_655  A
C1497      C1502   1.403       .  A
C1498      C1499   1.394       .  A
C1498      H1503   1.085       .  S
C1499      C1500   1.404       .  A
C1499      C1506   1.444       .  S
C1500      C1501   1.418   1_455  A
C1501      C1502   1.398       .  A
C1501      H1504   1.085       .  S
C1502      C1505   1.444       .  S
C1505      N1507   1.157       .  T
C1506      N1508   1.157       .  T
C1509      C1510   1.406       .  A
C1509      C1514   1.402       .  A
C1510      C1511   1.401       .  A
C1510      H1515   1.085       .  S
C1511      C1512   1.411       .  A
C1511      C1518   1.444       .  S
C1512      C1513   1.414       .  A
C1513      C1514   1.402       .  A
C1513      H1516   1.084       .  S
C1514      C1517   1.444       .  S
C1517      N1519   1.157       .  T
C1518      N1520   1.157       .  T
C1521      C1522   1.402       .  A
C1521      C1526   1.426       .  A
C1522      C1523   1.404       .  A
C1522      H1527   1.085       .  S
C1523      C1524   1.418       .  A
C1523      C1530   1.445       .  S
C1524      C1525   1.393       .  A
C1525      C1526   1.400       .  A
C1525      H1528   1.085       .  S
C1526      C1529   1.445       .  S
C1529      N1531   1.157       .  T
C1530      N1532   1.157       .  T
C1533      C1534   1.416       .  A
C1533      C1538   1.410       .  A
C1534      C1535   1.403       .  A
C1534      H1539   1.084       .  S
C1535      C1536   1.409       .  A
C1535      C1542   1.444       .  S
C1536      C1537   1.416       .  A
C1537      C1538   1.408       .  A
C1537      H1540   1.084       .  S
C1538      C1541   1.443       .  S
C1541      N1543   1.157       .  T
C1542      N1544   1.157       .  T
C1545      C1546   1.403       .  A
C1545      C1550   1.414       .  A
C1546      C1547   1.402       .  A
C1546      H1551   1.085       .  S
C1547      C1548   1.413       .  A
C1547      C1554   1.444       .  S
C1548      C1549   1.401       .  A
C1549      C1550   1.400       .  A
C1549      H1552   1.085       .  S
C1550      C1553   1.444       .  S
C1553      N1555   1.157       .  T
C1554      N1556   1.157       .  T
C1557      C1558   1.396       .  A
C1557      C1562   1.420       .  A
C1558      C1559   1.404       .  A
C1558      H1563   1.085       .  S
C1559      C1560   1.430       .  A
C1559      C1566   1.446       .  S
C1560      C1561   1.400       .  A
C1561      C1562   1.405       .  A
C1561      H1564   1.085       .  S
C1562      C1565   1.442   1_455  S
C1565      N1567   1.157       .  T
C1566      N1568   1.158       .  T
C1569      C1570   1.415       .  A
C1569      C1574   1.407       .  A
C1570      C1571   1.402       .  A
C1570      H1575   1.085       .  S
C1571      C1572   1.403       .  A
C1571      C1578   1.444       .  S
C1572      C1573   1.411       .  A
C1573      C1574   1.404       .  A
C1573      H1576   1.085       .  S
C1574      C1577   1.443       .  S
C1577      N1579   1.157       .  T
C1578      N1580   1.157       .  T
C1581      C1582   1.410       .  A
C1581      C1586   1.403       .  A
C1582      C1583   1.402       .  A
C1582      H1587   1.085       .  S
C1583      C1584   1.406       .  A
C1583      C1590   1.443       .  S
C1584      C1585   1.413       .  A
C1585      C1586   1.401       .  A
C1585      H1588   1.085       .  S
C1586      C1589   1.444       .  S
C1589      N1591   1.157       .  T
C1590      N1592   1.157       .  T
C1593      C1594   1.401       .  A
C1593      C1598   1.421       .  A
C1594      C1595   1.406       .  A
C1594      H1599   1.085       .  S
C1595      C1596   1.420       .  A
C1595      C1602   1.445       .  S
C1596      C1597   1.399       .  A
C1597      C1598   1.403       .  A
C1597      H1600   1.085       .  S
C1598      C1601   1.445       .  S
C1601      N1603   1.157       .  T
C1602      N1604   1.157       .  T
C1605      C1606   1.412       .  A
C1605      C1610   1.404       .  A
C1606      C1607   1.398       .  A
C1606      H1611   1.085       .  S
C1607      C1608   1.404       .  A
C1607      C1614   1.438       .  S
C1608      C1609   1.414       .  A
C1609      C1610   1.396       .  A
C1609      H1612   1.086       .  S
C1610      C1613   1.442       .  S
C1613      N1615   1.157       .  T
C1614      N1616   1.155       .  T
C1617      C1618   1.418       .  A
C1617      C1622   1.411       .  A
C1618      C1619   1.402       .  A
C1618      H1623   1.084       .  S
C1619      C1620   1.402       .  A
C1619      C1626   1.444       .  S
C1620      C1621   1.409       .  A
C1621      C1622   1.403       .  A
C1621      H1624   1.085       .  S
C1622      C1625   1.443       .  S
C1625      N1627   1.157       .  T
C1626      N1628   1.157       .  T
C1629      C1630   1.397       .  A
C1629      C1634   1.423       .  A
C1630      C1631   1.400       .  A
C1630      H1635   1.085       .  S
C1631      C1632   1.418       .  A
C1631      C1638   1.444       .  S
C1632      C1633   1.398       .  A
C1633      C1634   1.401       .  A
C1633      H1636   1.085       .  S
C1634      C1637   1.446       .  S
C1638      N1640   1.157       .  T
C1641      C1642   1.395       .  A
C1641      C1646   1.424       .  A
C1642      C1643   1.403       .  A
C1642      H1647   1.085       .  S
C1643      C1644   1.423       .  A
C1643      C1650   1.439       .  S
C1644      C1645   1.398       .  A
C1645      C1646   1.402       .  A
C1645      H1648   1.085       .  S
C1646      C1649   1.446       .  S
C1649      N1651   1.157       .  T
C1650      N1652   1.155       .  T
C1653      C1654   1.401       .  A
C1653      C1658   1.427       .  A
C1654      C1655   1.401       .  A
C1654      H1659   1.085       .  S
C1655      C1656   1.415       .  A
C1655      C1662   1.444       .  S
C1656      C1657   1.393       .  A
C1657      C1658   1.401       .  A
C1657      H1660   1.085       .  S
C1658      C1661   1.445       .  S
C1661      N1663   1.158   1_545  T
C1662      N1664   1.157       .  T
C1665      C1666   1.394       .  A
C1665      C1670   1.420       .  A
C1666      C1667   1.400       .  A
C1666      H1671   1.085       .  S
C1667      C1668   1.427       .  A
C1667      C1674   1.446       .  S
C1668      C1669   1.398       .  A
C1669      C1670   1.402       .  A
C1669      H1672   1.085       .  S
C1670      C1673   1.442       .  S
C1673      N1675   1.156       .  T
C1674      N1676   1.157       .  T
C1677      C1678   1.416       .  A
C1677      C1682   1.411       .  A
C1678      C1679   1.406       .  A
C1678      H1683   1.085       .  S
C1679      C1680   1.411       .  A
C1679      C1686   1.444       .  S
C1680      C1681   1.416       .  A
C1681      C1682   1.411       .  A
C1681      H1684   1.084       .  S
C1682      C1685   1.443       .  S
C1685      N1687   1.157       .  T
C1686      N1688   1.157       .  T
C1689      C1690   1.416       .  A
C1689      C1694   1.404       .  A
C1690      C1691   1.396       .  A
C1690      H1695   1.085       .  S
C1691      C1692   1.404       .  A
C1691      C1698   1.442       .  S
C1692      C1693   1.414       .  A
C1693      C1694   1.398       .  A
C1693      H1696   1.084       .  S
C1694      C1697   1.443       .  S
C1697      N1699   1.157       .  T
C1698      N1700   1.157       .  T
C1701      C1702   1.415       .  A
C1701      C1706   1.409       .  A
C1702      C1703   1.407       .  A
C1702      H1707   1.085       .  S
C1703      C1704   1.408       .  A
C1703      C1710   1.443       .  S
C1704      C1705   1.413       .  A
C1705      C1706   1.405       .  A
C1705      H1708   1.085       .  S
C1706      C1709   1.443       .  S
C1709      N1711   1.157       .  T
C1710      N1712   1.157       .  T
C1713      C1714   1.417       .  A
C1713      C1718   1.409       .  A
C1714      C1715   1.402       .  A
C1714      H1719   1.084       .  S
C1715      C1716   1.401       .  A
C1715      C1722   1.443       .  S
C1716      C1717   1.410       .  A
C1717      C1718   1.400       .  A
C1717      H1720   1.085       .  S
C1718      C1721   1.444       .  S
C1721      N1723   1.157       .  T
C1722      N1724   1.157       .  T
C1725      C1726   1.413       .  A
C1725      C1730   1.408       .  A
C1726      C1727   1.406       .  A
C1726      H1731   1.085       .  S
C1727      C1728   1.406       .  A
C1728      C1729   1.408       .  A
C1729      C1730   1.401       .  A
C1729      H1732   1.085       .  S
C1730      C1733   1.443       .  S
C1733      N1735   1.157       .  T
C1734      N1736   1.157       .  T
C1737      C1738   1.419   1_545  A
C1737      C1742   1.408   1_556  A
C1738      H1743   1.084       .  S
C1739      C1740   1.409       .  A
C1739      C1746   1.443       .  S
C1740      C1741   1.418   1_565  A
C1741      H1744   1.084       .  S
C1742      C1745   1.444       .  S
C1745      N1747   1.157       .  T
C1746      N1748   1.157       .  T
C1749      C1750   1.417   1_455  A
C1749      C1754   1.403   1_545  A
C1750      C1751   1.398       .  A
C1750      H1755   1.086       .  S
C1751      C1752   1.405   1_545  A
C1751      C1758   1.444       .  S
C1752      C1753   1.414   1_655  A
C1753      C1754   1.394       .  A
C1753      H1756   1.086       .  S
C1754      C1757   1.442       .  S
C1757      N1759   1.156       .  T
C1758      N1760   1.157       .  T
C1761      C1762   1.413       .  A
C1761      C1766   1.406       .  A
C1762      C1763   1.404       .  A
C1762      H1767   1.085       .  S
C1763      C1764   1.407       .  A
C1763      C1770   1.443       .  S
C1764      C1765   1.414       .  A
C1765      C1766   1.403       .  A
C1765      H1768   1.085       .  S
C1766      C1769   1.443       .  S
C1769      N1771   1.157       .  T
C1770      N1772   1.157       .  T
C1773      C1774   1.398       .  A
C1773      C1778   1.423       .  A
C1774      C1775   1.402       .  A
C1774      H1779   1.085       .  S
C1775      C1776   1.421       .  A
C1775      C1782   1.445       .  S
C1776      C1777   1.396       .  A
C1777      C1778   1.400       .  A
C1777      H1780   1.085       .  S
C1778      C1781   1.445       .  S
C1781      N1783   1.157   1_565  T
C1782      N1784   1.157       .  T
C1785      C1786   1.404       .  A
C1785      C1790   1.405       .  A
C1786      C1787   1.405       .  A
C1786      H1791   1.085       .  S
C1787      C1788   1.416       .  A
C1787      C1794   1.444       .  S
C1788      C1789   1.411       .  A
C1789      C1790   1.403       .  A
C1789      H1792   1.084       .  S
C1790      C1793   1.442       .  S
C1793      N1795   1.156       .  T
C1794      N1796   1.157       .  T
C1797      C1798   1.416   1_545  A
C1797      C1802   1.410       .  A
C1798      C1799   1.404       .  A
C1798      H1803   1.084       .  S
C1799      C1800   1.411       .  A
C1799      C1806   1.444       .  S
C1800      C1801   1.416   1_565  A
C1801      C1802   1.407       .  A
C1801      H1804   1.084       .  S
C1802      C1805   1.443       .  S
C1805      N1807   1.157       .  T
C1806      N1808   1.157       .  T
C1809      C1810   1.404   1_545  A
C1810      C1811   1.403   1_556  A
C1810      H1815   1.085       .  S
C1811      C1818   1.445       .  S
C1812      C1813   1.402   1_565  A
C1813      C1814   1.401       .  A
C1813      H1816   1.085       .  S
C1814      C1817   1.444       .  S
C1817      N1819   1.157       .  T
C1818      N1820   1.157       .  T
C1821      C1822   1.415       .  A
C1821      C1826   1.413       .  A
C1822      C1823   1.404       .  A
C1822      H1827   1.084       .  S
C1823      C1824   1.404       .  A
C1823      C1830   1.444       .  S
C1824      C1825   1.407       .  A
C1825      C1826   1.405       .  A
C1825      H1828   1.085       .  S
C1826      C1829   1.443       .  S
C1829      N1831   1.157       .  T
C1830      N1832   1.157       .  T
C1833      C1834   1.403       .  A
C1833      C1838   1.404       .  A
C1834      C1835   1.402       .  A
C1834      H1839   1.085       .  S
C1835      C1836   1.417       .  A
C1835      C1842   1.444       .  S
C1836      C1837   1.415       .  A
C1837      C1838   1.405       .  A
C1837      H1840   1.084       .  S
C1838      C1841   1.443       .  S
C1841      N1843   1.157       .  T
C1842      N1844   1.157       .  T
C1845      C1846   1.401       .  A
C1845      C1850   1.418       .  A
C1846      C1847   1.401       .  A
C1846      H1851   1.085       .  S
C1847      C1848   1.414       .  A
C1847      C1854   1.441       .  S
C1848      C1849   1.403       .  A
C1849      C1850   1.404       .  A
C1849      H1852   1.085       .  S
C1850      C1853   1.445       .  S
C1853      N1855   1.157       .  T
C1854      N1856   1.156       .  T
