geometry optimzed in LAMMPS
_audit_creation_date              2020-12-01 
_audit_creation_method            'lammps2cif' 
_symmetry_space_group_name_H-M    'P1' 
_symmetry_Int_Tables_number       1 
_symmetry_cell_setting            triclinic 
loop_ 
_symmetry_equiv_pos_as_xyz 
  x,y,z 
_cell_length_a                    63.84549576 
_cell_length_b                    63.78675888351438 
_cell_length_c                    26.62978778444927 
_cell_angle_alpha                 90.18770160844778 
_cell_angle_beta                  90.01188349333917 
_cell_angle_gamma                 120.76182727517644 
loop_ 
_atom_site_label 
_atom_site_type_symbol 
_atom_site_fract_x 
_atom_site_fract_y 
_atom_site_fract_z 
_atom_site_charge 
O1          O  0.36813144  0.87555585  0.43291156    -0.82500
C2          C  0.32847125  0.87988030  0.61709315     0.96800
O3          O  0.35088195  0.89272931  0.60597425    -0.71700
O4          O  0.36711015  0.86423359  0.57764516    -0.75300
Al5        Al  0.36858955  0.89193299  0.54816100     1.49000
C6          C  0.36951527  0.84882334  0.55262890     0.92100
O7          O  0.31198624  0.82630503  0.49833196    -0.81500
O8          O  0.32126145  0.88927082  0.44744197    -0.75000
Al9        Al  0.34071575  0.85219623  0.46829831     1.90100
O10         O  0.29270777  0.84664818  0.49962345    -0.74100
O11         O  0.33618054  0.91395937  0.53196937    -0.74000
O12         O  0.31227743  0.87023023  0.58354334    -0.79600
O13         O  0.37336759  0.92153243  0.52283633    -0.77800
O14         O  0.34223360  0.87436668  0.51105122    -1.13900
O15         O  0.39161524  0.89460768  0.49758463    -0.73100
C16         C  0.38891870  0.88958614  0.45110199     0.97600
C17         C  0.29229104  0.82660510  0.49853728     0.94000
Al18       Al  0.31743893  0.87952034  0.51540385     1.55600
O19         O  0.36081894  0.84325648  0.50840234    -0.77800
C20         C  0.35856563  0.92898689  0.52503026     0.98100
C21         C  0.32076476  0.87633000  0.41102456     0.93000
O22         O  0.32182882  0.85726155  0.41816602    -0.83100
O23         O  0.37405960  0.87831341  0.94750448    -0.82500
C24         C  0.32978633  0.88899777  0.11816186     0.96800
O25         O  0.35253068  0.90112671  0.10999006    -0.71700
O26         O  0.36697052  0.86996883  0.09442673    -0.75300
Al27       Al  0.37151325  0.89743070  0.05823973     1.49000
C28         C  0.36902446  0.85315702  0.07471490     0.92100
O29         O  0.31706470  0.83224744  0.01269860    -0.81500
O30         O  0.32761550  0.89236296  0.94477355    -0.75000
Al31       Al  0.34581692  0.85617411  0.98167429     1.90100
O32         O  0.29697695  0.85137019  0.00101612    -0.74100
O33         O  0.34204618  0.92100988  0.02451528    -0.74000
O34         O  0.31479605  0.87896485  0.08264386    -0.79600
O35         O  0.37872575  0.92631086  0.02638113    -0.77800
O36         O  0.34646680  0.87969110  0.01817777    -1.13900
O37         O  0.39587930  0.89762188  0.01404687    -0.73100
C38         C  0.39433902  0.89245530  0.96763329     0.97600
C39         C  0.29720687  0.83164693  0.00618110     0.94000
Al40       Al  0.32211758  0.88547804  0.01387230     1.55600
O41         O  0.36390897  0.84793896  0.02868708    -0.77800
C42         C  0.36497835  0.93478140  0.02003773     0.98100
C43         C  0.32687870  0.87751559  0.91249203     0.93000
O44         O  0.32829157  0.85920059  0.92553012    -0.83100
O45         O  0.49464408  0.13698029  0.08247754    -0.82500
C46         C  0.44583410  0.12567794  0.90042112     0.96800
O47         O  0.45728864  0.11504518  0.91184874    -0.71700
O48         O  0.50296607  0.14500926  0.93650730    -0.75300
Al49       Al  0.47661193  0.11750662  0.96883633     1.49000
C50         C  0.52128261  0.16102465  0.96021515     0.92100
O51         O  0.48704479  0.18388139  0.01117319    -0.81500
O52         O  0.43386155  0.12385838  0.07578008    -0.75000
Al53       Al  0.49031055  0.15928181  0.04458247     1.90100
O54         O  0.44689077  0.16309506  0.01265298    -0.74100
O55         O  0.42166070  0.09436964  0.99672423    -0.74000
O56         O  0.43878782  0.13477233  0.93388156    -0.79600
O57         O  0.45198019  0.08770445  0.99539276    -0.77800
O58         O  0.46818973  0.13542472  0.00557876    -1.13900
O59         O  0.49746100  0.11621799  0.01935078    -0.73100
C60         C  0.50026516  0.12205922  0.06541216     0.97600
C61         C  0.46688089  0.18330498  0.01161651     0.94000
Al62       Al  0.43773919  0.12947538  0.00454299     1.55600
O63         O  0.51859832  0.16712338  0.00389744    -0.77800
C64         C  0.42951953  0.07978739  0.99879783     0.98100
C65         C  0.44739333  0.13968423  0.10792343     0.93000
O66         O  0.46821614  0.15693045  0.09570391    -0.83100
O67         O  0.50012047  0.13181504  0.56088780    -0.82500
C68         C  0.43914267  0.11719399  0.39573008     0.96800
O69         O  0.45279107  0.10853644  0.40202326    -0.71700
O70         O  0.49785986  0.14440919  0.41587808    -0.75300
Al71       Al  0.47732307  0.11496490  0.45031568     1.49000
C72         C  0.51720257  0.16054393  0.43669886     0.92100
O73         O  0.48366578  0.17661064  0.50928217    -0.81500
O74         O  0.43699270  0.11328480  0.57046005    -0.75000
Al75       Al  0.49109240  0.15325983  0.53285123     1.90100
O76         O  0.44377082  0.15341668  0.51586553    -0.74100
O77         O  0.42443357  0.08555323  0.48921870    -0.74000
O78         O  0.43411457  0.12672032  0.43189309    -0.79600
O79         O  0.45822732  0.08489621  0.48054653    -0.77800
O80         O  0.46844679  0.12969455  0.49459764    -1.13900
O81         O  0.50386501  0.11728048  0.48886725    -0.85100
C82         C  0.50841018  0.12102651  0.53524106     0.97600
C83         C  0.46298853  0.17445293  0.51506250     0.94000
Al84       Al  0.43723055  0.12055112  0.50117854     1.55600
O85         O  0.51725919  0.16490454  0.48328449    -0.77800
C86         C  0.43563301  0.07382139  0.48806542     0.98100
C87         C  0.45105101  0.12793162  0.60350646     0.93000
O88         O  0.47078141  0.14682788  0.59119630    -0.83100
O89         O  0.62219704  0.12810312  0.19411779    -0.82500
C90         C  0.65675189  0.11047094  0.37393355     0.96800
O91         O  0.63493655  0.10060184  0.35905148    -0.71700
O92         O  0.62415894  0.13444875  0.34213318    -0.75300
Al93       Al  0.61980151  0.10723451  0.30482039     1.49000
C94         C  0.62371839  0.15206132  0.32191901     0.92100
O95         O  0.67796594  0.17258842  0.26765720    -0.81500
O96         O  0.66828233  0.11255050  0.20189164    -0.75000
Al97       Al  0.64979284  0.14932671  0.23295640     1.90100
O98         O  0.69702598  0.15206079  0.26468838    -0.74100
O99         O  0.64898542  0.08265626  0.27813887    -0.74000
O100        O  0.67421412  0.12248730  0.34377830    -0.79600
O101        O  0.61299240  0.07884506  0.27062780    -0.77800
O102        O  0.64684418  0.12503917  0.27035859    -1.13900
O103        O  0.59814279  0.10939752  0.25779688    -0.73100
C104        C  0.60114532  0.11485954  0.21176658     0.97600
C105        C  0.69757009  0.17226652  0.26733134     0.94000
Al106      Al  0.67049668  0.11812851  0.27216482     1.55600
O107        O  0.63085947  0.15798874  0.27695246    -0.77800
C108        C  0.62634600  0.06967329  0.26849043     0.98100
C109        C  0.66968203  0.12723248  0.16865282     0.93000
O110        O  0.66870971  0.14594171  0.18037110    -0.83100
O111        O  0.62455602  0.13266748  0.69402581    -0.82500
C112        C  0.66626989  0.12427475  0.87329937     0.96800
O113        O  0.64379531  0.11513940  0.86486507    -0.71700
O114        O  0.63175154  0.14726120  0.83894740    -0.75300
Al115      Al  0.62605748  0.11748697  0.80981214     1.49000
C116        C  0.62898238  0.16223616  0.81338730     0.92100
O117        O  0.68413958  0.17956392  0.75563457    -0.81500
O118        O  0.66940576  0.11552678  0.69862230    -0.75000
Al119      Al  0.65390613  0.15512834  0.72699600     1.90100
O120        O  0.70058817  0.15645881  0.75488739    -0.74100
O121        O  0.65247093  0.08928025  0.78200523    -0.74000
O122        O  0.68146222  0.13162715  0.83782102    -0.79600
O123        O  0.61685664  0.08625895  0.78639609    -0.77800
O124        O  0.65141901  0.13216220  0.76874277    -1.13900
O125        O  0.60300335  0.11647934  0.76245212    -0.73100
C126        C  0.60420929  0.12043646  0.71571556     0.97600
C127        C  0.70285190  0.17743295  0.75486679     0.94000
Al128      Al  0.67415593  0.12389252  0.76848350     1.55600
O129        O  0.63637850  0.16633599  0.76839610    -0.77800
C130        C  0.62944827  0.07630104  0.78347743     0.98100
C131        C  0.67240640  0.13059810  0.66469676     0.93000
O132        O  0.67086679  0.14911675  0.67466423    -0.83100
O133        O  0.49663944  0.86994339  0.32517188    -0.82500
C134        C  0.54927545  0.87859688  0.15057257     0.96800
O135        O  0.53888817  0.89060445  0.15946712    -0.71700
O136        O  0.49290351  0.86063271  0.17842048    -0.75300
Al137      Al  0.51752624  0.88813885  0.21303423     1.49000
C138        C  0.47362270  0.84470465  0.19917071     0.92100
O139        O  0.50402986  0.82221447  0.25796695    -0.81500
O140        O  0.55682432  0.88181050  0.32588251    -0.75000
Al141      Al  0.50096154  0.84701609  0.28989156     1.90100
O142        O  0.54390904  0.84118734  0.26633319    -0.74100
O143        O  0.57126706  0.91036477  0.24570294    -0.74000
O144        O  0.55436975  0.86872773  0.18575124    -0.79600
O145        O  0.54118644  0.91746444  0.24232488    -0.77800
O146        O  0.52435550  0.87018915  0.25263410    -1.13900
O147        O  0.49474783  0.88962412  0.25929097    -0.73100
C148        C  0.49125813  0.88454866  0.30571903     0.97600
C149        C  0.52341256  0.82156197  0.26205413     0.94000
Al150      Al  0.55433179  0.87517380  0.25549277     1.55600
O151        O  0.47391498  0.83951366  0.24488831    -0.77800
C152        C  0.56357545  0.92516024  0.24657838     0.98100
C153        C  0.54257569  0.86649978  0.35766919     0.93000
O154        O  0.52183213  0.84917195  0.34450791    -0.83100
O155        O  0.50247713  0.87373156  0.83276725    -0.82500
C156        C  0.55161290  0.88881300  0.64947872     0.96800
O157        O  0.54103671  0.89983280  0.66491417    -0.71700
O158        O  0.49503566  0.86865692  0.68551349    -0.75300
Al159      Al  0.52073195  0.89516016  0.72158607     1.49000
C160        C  0.47660614  0.85179176  0.70728446     0.92100
O161        O  0.51023940  0.82826831  0.75623327    -0.81500
O162        O  0.56380542  0.88823893  0.82088232    -0.75000
Al163      Al  0.50709564  0.85224139  0.79230876     1.90100
O164        O  0.55017992  0.84777494  0.75967863    -0.74100
O165        O  0.57535388  0.91741672  0.74247663    -0.74000
O166        O  0.55682408  0.87672428  0.67946286    -0.79600
O167        O  0.54494457  0.92346371  0.75391035    -0.77800
O168        O  0.52890769  0.87629702  0.75437539    -1.13900
O169        O  0.49884133  0.89473391  0.77196239    -0.73100
C170        C  0.49616904  0.88833056  0.81752571     0.97600
C171        C  0.52981011  0.82782163  0.75772093     0.94000
Al172      Al  0.55919712  0.88195853  0.75070214     1.55600
O173        O  0.47884747  0.84481127  0.75056260    -0.77800
C174        C  0.56751958  0.93168517  0.75223240     0.98100
C175        C  0.55035851  0.87373983  0.85465521     0.93000
O176        O  0.53004988  0.85508222  0.84342418    -0.83100
O177        O  0.63299499  0.51429317  0.41233161    -0.82500
C178        C  0.68279725  0.56413867  0.23925376     0.96800
O179        O  0.66009787  0.55473191  0.24613677    -0.71700
O180        O  0.64026069  0.50830829  0.26674207    -0.75300
Al181      Al  0.63901533  0.53413106  0.29877478     1.49000
C182        C  0.63523987  0.48898791  0.28922511     0.92100
O183        O  0.68751639  0.51752573  0.35185623    -0.81500
O184        O  0.68401768  0.57296774  0.41216515    -0.75000
Al185      Al  0.66007915  0.51656649  0.38032950     1.90100
O186        O  0.71122329  0.55727328  0.36007075    -0.74100
O187        O  0.67368629  0.58791114  0.32886061    -0.74000
O188        O  0.69710254  0.56815694  0.27551730    -0.79600
O189        O  0.63521928  0.55903388  0.32555869    -0.77800
O190        O  0.66291119  0.54007308  0.34060401    -1.13900
O191        O  0.61277852  0.51220864  0.34383660    -0.73100
C192        C  0.61332962  0.50874136  0.39065119     0.97600
C193        C  0.70844790  0.53606393  0.35776977     0.94000
Al194      Al  0.68957645  0.56940143  0.34373922     1.55600
O195        O  0.63978001  0.48952824  0.33561379    -0.77800
C196        C  0.65127370  0.58126811  0.32843414     0.98100
C197        C  0.68254056  0.55850568  0.44597891     0.93000
O198        O  0.67893545  0.53761627  0.43503455    -0.83100
O199        O  0.64012853  0.51490555  0.92589712    -0.82500
C200        C  0.67977638  0.55903510  0.74071544     0.96800
O201        O  0.65735402  0.54808303  0.75168035    -0.71700
O202        O  0.64271590  0.50347133  0.78118405    -0.75300
Al203      Al  0.63998204  0.52932773  0.80940956     1.49000
C204        C  0.64030552  0.48595615  0.80730727     0.92100
O205        O  0.69655833  0.52274510  0.86116421    -0.81500
O206        O  0.68777152  0.57672241  0.91132932    -0.75000
Al207      Al  0.66789781  0.51948862  0.89098019     1.90100
O208        O  0.71606408  0.56280799  0.85773729    -0.74100
O209        O  0.67100483  0.58496412  0.82710915    -0.74000
O210        O  0.69590442  0.56643950  0.77440495    -0.79600
O211        O  0.63401432  0.55360140  0.83308812    -0.77800
O212        O  0.66626105  0.53968076  0.84746573    -1.13900
O213        O  0.61701568  0.50835630  0.85971056    -0.73100
C214        C  0.61934701  0.50668579  0.90653578     0.97600
C215        C  0.71638354  0.54306423  0.85988179     0.94000
Al216      Al  0.69080265  0.57033127  0.84285496     1.55600
O217        O  0.64818564  0.48973037  0.85208851    -0.77800
C218        C  0.64823894  0.57634304  0.83139490     0.98100
C219        C  0.68933659  0.56480242  0.94737623     0.93000
O220        O  0.68690042  0.54406076  0.94018919    -0.83100
O221        O  0.50327461  0.37963452  0.03522958    -0.82500
C222        C  0.44811598  0.34264308  0.21054070     0.96800
O223        O  0.45730136  0.36438960  0.19516748    -0.71700
O224        O  0.50333151  0.37917659  0.18263181    -0.75300
Al225      Al  0.48033071  0.38096603  0.14172787     1.49000
C226        C  0.52210091  0.37976352  0.16621777     0.92100
O227        O  0.49127061  0.32481961  0.11018423    -0.81500
O228        O  0.44030954  0.33095760  0.03759877    -0.75000
Al229      Al  0.49627290  0.35260891  0.07478700     1.90100
O230        O  0.45167064  0.30396450  0.10041274    -0.74100
O231        O  0.42693246  0.34812908  0.11385031    -0.74000
O232        O  0.44373814  0.32556605  0.17998391    -0.79600
O233        O  0.45817478  0.38508675  0.10357561    -0.77800
O234        O  0.47326198  0.35413723  0.10844214    -1.13900
O235        O  0.50514042  0.40377611  0.09578081    -0.73100
C236        C  0.50977031  0.40064403  0.05109462     0.97600
C237        C  0.47181113  0.30463742  0.10457023     0.94000
Al238      Al  0.44289369  0.32891590  0.10841975     1.55600
O239        O  0.52243462  0.37228634  0.12215103    -0.77800
C240        C  0.43561353  0.37021590  0.10112432     0.98100
C241        C  0.45500113  0.33086128  0.00584456     0.93000
O242        O  0.47519969  0.33348267  0.01998846    -0.83100
O243        O  0.51159173  0.37719269  0.52855340    -0.82500
C244        C  0.46155419  0.34127216  0.70891899     0.96800
O245        O  0.47356839  0.36371679  0.69799864    -0.71700
O246        O  0.51829696  0.37677796  0.67536088    -0.75300
Al247      Al  0.49417612  0.38022560  0.64133357     1.49000
C248        C  0.53637909  0.37853486  0.65282674     0.92100
O249        O  0.49929737  0.32203572  0.60280502    -0.81500
O250        O  0.44979508  0.33287924  0.53383904    -0.75000
Al251      Al  0.50504680  0.35017903  0.56730388     1.90100
O252        O  0.45939881  0.30333157  0.59527659    -0.74100
O253        O  0.43906484  0.35120965  0.61405608    -0.74000
O254        O  0.45346852  0.32502605  0.67513638    -0.79600
O255        O  0.47195320  0.38723582  0.61271387    -0.77800
O256        O  0.48394901  0.35345670  0.60482651    -1.13900
O257        O  0.51664066  0.40214773  0.59071722    -0.73100
C258        C  0.51850698  0.39835962  0.54448584     0.97600
C259        C  0.47884963  0.30247284  0.59905223     0.94000
Al260      Al  0.45275011  0.32991005  0.60488885     1.55600
O261        O  0.53377577  0.37004189  0.60875441    -0.77800
C262        C  0.44919339  0.37422252  0.61051725     0.98100
C263        C  0.46257678  0.32959917  0.50197165     0.93000
O264        O  0.48216621  0.33075243  0.51532359    -0.83100
O265        O  0.50495730  0.63119356  0.26161187    -0.82500
C266        C  0.55062067  0.66848404  0.44613941     0.96800
O267        O  0.54061061  0.64620903  0.43367121    -0.71700
O268        O  0.49526758  0.63109193  0.40781921    -0.75300
Al269      Al  0.52100537  0.62938505  0.37589262     1.49000
C270        C  0.47735873  0.62876467  0.38308259     0.92100
O271        O  0.51322874  0.68616124  0.33268535    -0.81500
O272        O  0.56663151  0.67852423  0.27560123    -0.75000
Al273      Al  0.50972415  0.65817958  0.29944020     1.90100
O274        O  0.55328545  0.70579581  0.33291056    -0.74100
O275        O  0.57618217  0.66144694  0.35683937    -0.74000
O276        O  0.55766780  0.68498471  0.41350688    -0.79600
O277        O  0.54502085  0.62448318  0.34726465    -0.77800
O278        O  0.53050450  0.65615692  0.34035274    -1.13900
O279        O  0.49936847  0.60709159  0.32530224    -0.73100
C280        C  0.49689934  0.61017314  0.27920915     0.97600
C281        C  0.53352557  0.70597122  0.33294386     0.94000
Al282      Al  0.56109080  0.68084178  0.34468197     1.55600
O283        O  0.48061780  0.63767490  0.33926937    -0.77800
C284        C  0.56766007  0.63914546  0.34664273     0.98100
C285        C  0.55419377  0.68020603  0.24073232     0.93000
O286        O  0.53363999  0.67791380  0.24966754    -0.83100
O287        O  0.50015428  0.63016965  0.77417363    -0.82500
C288        C  0.55400911  0.67378392  0.94807231     0.96800
O289        O  0.54163849  0.65093488  0.94080116    -0.71700
O290        O  0.49641677  0.63723427  0.91966165    -0.75300
Al291      Al  0.51974586  0.63209117  0.88709598     1.49000
C292        C  0.47797802  0.63491036  0.89741477     0.92100
O293        O  0.51466603  0.68964044  0.83543085    -0.81500
O294        O  0.56229938  0.67372852  0.77520770    -0.75000
Al295      Al  0.50785344  0.65918811  0.80726865     1.90100
O296        O  0.55448109  0.70669342  0.82872510    -0.74100
O297        O  0.57440105  0.65952591  0.85769906    -0.74000
O298        O  0.56110493  0.68860160  0.91202289    -0.79600
O299        O  0.54143861  0.62361447  0.85977712    -0.77800
O300        O  0.52938199  0.65730938  0.84656937    -1.13900
O301        O  0.49595647  0.60810820  0.84077265    -0.73100
C302        C  0.49292067  0.60977303  0.79419441     0.97600
C303        C  0.53559463  0.70859400  0.83063443     0.94000
Al304      Al  0.56068669  0.68043130  0.84377018     1.55600
O305        O  0.47971159  0.64166378  0.85208836    -0.77800
C306        C  0.56423317  0.63646284  0.85663422     0.98100
C307        C  0.54892565  0.67472528  0.74162153     0.93000
O308        O  0.53011244  0.67553388  0.75288793    -0.83100
O309        O  0.36549190  0.50114333  0.14637541    -0.82500
C310        C  0.32721411  0.44355460  0.97249678     0.96800
O311        O  0.34940773  0.45498857  0.98573267    -0.71700
O312        O  0.36530109  0.50134407  0.99955369    -0.75300
Al313      Al  0.36663875  0.47757380  0.03940448     1.49000
C314        C  0.36661163  0.52043567  0.01632630     0.92100
O315        O  0.31086277  0.48861016  0.07080511    -0.81500
O316        O  0.31796688  0.43883809  0.14713279    -0.75000
Al317      Al  0.33864046  0.49403638  0.10689391     1.90100
O318        O  0.29022546  0.44910886  0.08303434    -0.74100
O319        O  0.33349901  0.42412099  0.07014965    -0.74000
O320        O  0.31050003  0.43932589  0.00381228    -0.79600
O321        O  0.37117904  0.45462087  0.07436012    -0.77800
O322        O  0.34012082  0.47064910  0.07372376    -1.13900
O323        O  0.38942623  0.50165614  0.08665761    -0.73100
C324        C  0.38628813  0.50675181  0.13103473     0.97600
C325        C  0.29078050  0.46909306  0.07693667     0.94000
Al326      Al  0.31493484  0.44022441  0.07566030     1.55600
O327        O  0.35869185  0.52050113  0.05999587    -0.77800
C328        C  0.35598232  0.43208036  0.07586300     0.98100
C329        C  0.31709989  0.45351799  0.17797719     0.93000
O330        O  0.31935834  0.47339617  0.16259497    -0.83100
O331        O  0.36575200  0.49626793  0.65399310    -0.82500
C332        C  0.33485113  0.44433095  0.47164266     0.96800
O333        O  0.35673031  0.45674869  0.48666558    -0.71700
O334        O  0.36926682  0.50192848  0.50745156    -0.75300
Al335      Al  0.37147346  0.47757402  0.54417446     1.49000
C336        C  0.36956958  0.51975778  0.52852503     0.92100
O337        O  0.31110329  0.48205101  0.57410063    -0.81500
O338        O  0.32082540  0.43310493  0.64731757    -0.75000
Al339      Al  0.33914985  0.48857786  0.61191466     1.90100
O340        O  0.29342850  0.44217914  0.57936204    -0.74100
O341        O  0.34129987  0.42262350  0.57033143    -0.74000
O342        O  0.31737736  0.43676308  0.50260581    -0.79600
O343        O  0.37762139  0.45496953  0.57625441    -0.77800
O344        O  0.34358973  0.46744225  0.57663291    -1.13900
O345        O  0.39192995  0.50048635  0.59562955    -0.73100
C346        C  0.38731227  0.50374593  0.64031679     0.97600
C347        C  0.29190999  0.46118694  0.57611917     0.94000
Al348      Al  0.32012164  0.43614297  0.57472815     1.55600
O349        O  0.35923789  0.51688341  0.57056170    -0.77800
C350        C  0.36397936  0.43215110  0.57743905     0.98100
C351        C  0.31716289  0.44633209  0.67760198     0.93000
O352        O  0.31927286  0.46610382  0.66276493    -0.83100
O353        O  0.12371575  0.49629426  0.09867760    -0.82500
C354        C  0.11566445  0.44654361  0.27777975     0.96800
O355        O  0.10481128  0.45803343  0.26872046    -0.71700
O356        O  0.13729340  0.50352348  0.24360871    -0.75300
Al357      Al  0.10776334  0.47855508  0.21353530     1.49000
C358        C  0.15313991  0.52106964  0.21780526     0.92100
O359        O  0.17019708  0.48433642  0.15941222    -0.81500
O360        O  0.10663676  0.43277251  0.10535933    -0.75000
Al361      Al  0.14583010  0.48930719  0.13127852     1.90100
O362        O  0.14794235  0.44431711  0.15997363    -0.74100
O363        O  0.08153590  0.42370369  0.18865113    -0.74000
O364        O  0.12403875  0.43960579  0.24285785    -0.79600
O365        O  0.07687640  0.45538860  0.18763647    -0.77800
O366        O  0.12311043  0.46851834  0.17321058    -1.13900
O367        O  0.10752541  0.50126418  0.16709789    -0.73100
C368        C  0.11268879  0.50533268  0.12102403     0.97600
C369        C  0.16856230  0.46374277  0.15945189     0.94000
Al370      Al  0.11562725  0.43755925  0.17435168     1.55600
O371        O  0.15721026  0.51756676  0.17308405    -0.77800
C372        C  0.06791171  0.43263440  0.18534627     0.98100
C373        C  0.12081222  0.44534511  0.07043207     0.93000
O374        O  0.13928428  0.46604167  0.07917549    -0.83100
O375        O  0.12630639  0.49810245  0.60159122    -0.82500
C376        C  0.12515026  0.45021917  0.77974117     0.96800
O377        O  0.11751369  0.46480532  0.77413573    -0.71700
O378        O  0.14846725  0.50980769  0.74315234    -0.75300
Al379      Al  0.11738438  0.48408288  0.72012550     1.49000
C380        C  0.16115558  0.52720097  0.71365923     0.92100
O381        O  0.17591045  0.48940389  0.65557997    -0.81500
O382        O  0.11102988  0.43726815  0.60715112    -0.75000
Al383      Al  0.15059281  0.49313918  0.63006281     1.90100
O384        O  0.15493775  0.44912847  0.65633290    -0.74100
O385        O  0.08733304  0.42801022  0.69206689    -0.74000
O386        O  0.13113486  0.44208294  0.74272166    -0.79600
O387        O  0.08566551  0.46110917  0.70273072    -0.77800
O388        O  0.12991186  0.47284373  0.67561246    -1.13900
O389        O  0.11398681  0.50508815  0.67372669    -0.73100
C390        C  0.11573818  0.50700607  0.62636617     0.97600
C391        C  0.17530125  0.46926672  0.65465804     0.94000
Al392      Al  0.12183114  0.44160570  0.67483108     1.55600
O393        O  0.16279057  0.52267742  0.66821755    -0.77800
C394        C  0.07500518  0.43844321  0.69647730     0.98100
C395        C  0.12429825  0.44941733  0.57102490     0.93000
O396        O  0.14362555  0.46945426  0.57870917    -0.83100
O397        O  0.12573400  0.62381305  0.47413157    -0.82500
C398        C  0.11843661  0.66817971  0.29700032     0.96800
O399        O  0.11018442  0.64584287  0.30482737    -0.71700
O400        O  0.14325481  0.63417909  0.32955163    -0.75300
Al401      Al  0.11314234  0.62781404  0.35804425     1.49000
C402        C  0.15761768  0.63075410  0.35614851     0.92100
O403        O  0.17409559  0.68286518  0.41675207    -0.81500
O404        O  0.11133549  0.67084866  0.47071221    -0.75000
Al405      Al  0.14926511  0.65354669  0.44380987     1.90100
O406        O  0.15356648  0.70208500  0.41657822    -0.74100
O407        O  0.08538250  0.65436045  0.38877951    -0.74000
O408        O  0.12741957  0.68358077  0.33224609    -0.79600
O409        O  0.08248243  0.61869495  0.38224740    -0.77800
O410        O  0.12752891  0.65256958  0.40082198    -1.13900
O411        O  0.11211612  0.60390929  0.40275702    -0.73100
C412        C  0.11505251  0.60398963  0.44970956     0.97600
C413        C  0.17371175  0.70243573  0.41693878     0.94000
Al414      Al  0.12012652  0.67597093  0.40181048     1.55600
O415        O  0.16042565  0.63663579  0.40204899    -0.77800
C416        C  0.07264554  0.63122623  0.38886155     0.98100
C417        C  0.12496942  0.67196317  0.50596228     0.93000
O418        O  0.14348775  0.67036255  0.49707437    -0.83100
O419        O  0.13793515  0.63108328  0.97048269    -0.82500
C420        C  0.12226363  0.67307468  0.79950381     0.96800
O421        O  0.11379353  0.65065997  0.80682172    -0.71700
O422        O  0.14851933  0.64072283  0.82416411    -0.75300
Al423      Al  0.11930280  0.63344159  0.85833330     1.49000
C424        C  0.16469616  0.63867429  0.84701752     0.92100
O425        O  0.18159744  0.69203332  0.91009481    -0.81500
O426        O  0.12004488  0.67649785  0.97657487    -0.75000
Al427      Al  0.15880358  0.66137424  0.93814296     1.90100
O428        O  0.15794255  0.70785158  0.91461128    -0.74100
O429        O  0.09052811  0.65770027  0.89806805    -0.74000
O430        O  0.13009774  0.68803863  0.83552300    -0.79600
O431        O  0.08903222  0.62290870  0.88770687    -0.77800
O432        O  0.13448415  0.65860448  0.90044152    -1.13900
O433        O  0.12112025  0.61051921  0.90103398    -0.73100
C434        C  0.12622763  0.61106035  0.94699423     0.97600
C435        C  0.17897038  0.71039775  0.91276377     0.94000
Al436      Al  0.12533569  0.68069953  0.90538239     1.55600
O437        O  0.16965664  0.64564421  0.89214370    -0.77800
C438        C  0.07863959  0.63457699  0.89830389     0.98100
C439        C  0.13642925  0.67958214  0.00740421     0.93000
O440        O  0.15390336  0.67714507  0.99351231    -0.83100
O441        O  0.87192283  0.50402225  0.36842950    -0.82500
C442        C  0.88591243  0.55767122  0.54580041     0.96800
O443        O  0.89772109  0.54738781  0.53454931    -0.71700
O444        O  0.86500360  0.50133691  0.51558453    -0.75300
Al445      Al  0.89267450  0.52549610  0.48011263     1.49000
C446        C  0.84841274  0.48265548  0.49349593     0.92100
O447        O  0.82733550  0.51670244  0.43696197    -0.81500
O448        O  0.88784390  0.56769682  0.37154389    -0.75000
Al449      Al  0.85089087  0.51146369  0.40488881     1.90100
O450        O  0.84917569  0.55671711  0.43340797    -0.74100
O451        O  0.91688963  0.57961688  0.45089241    -0.74000
O452        O  0.87622067  0.56384849  0.51223869    -0.79600
O453        O  0.92181095  0.54811694  0.44854075    -0.77800
O454        O  0.87518538  0.53381963  0.44240962    -1.13900
O455        O  0.89137478  0.50174902  0.43425288    -0.73100
C456        C  0.88429857  0.49613436  0.38931324     0.97600
C457        C  0.82874753  0.53721216  0.43660766     0.94000
Al458      Al  0.88203680  0.56457881  0.44224863     1.55600
O459        O  0.84203035  0.48436467  0.44942676    -0.77800
C460        C  0.93050185  0.57077126  0.44519139     0.98100
C461        C  0.87210588  0.55402707  0.33945603     0.93000
O462        O  0.85465512  0.53320706  0.35147426    -0.83100
O463        O  0.88287522  0.50464061  0.87247127    -0.82500
C464        C  0.89039100  0.55699543  0.05004004     0.96800
O465        O  0.89984666  0.54432413  0.04015355    -0.71700
O466        O  0.86862944  0.49777280  0.01777292    -0.75300
Al467      Al  0.89745732  0.52364147  0.98696381     1.49000
C468        C  0.85355749  0.47957475  0.99187703     0.92100
O469        O  0.83337535  0.51304080  0.93086430    -0.81500
O470        O  0.89501893  0.56664731  0.87637157    -0.75000
Al471      Al  0.85914180  0.50991530  0.90397110     1.90100
O472        O  0.85295093  0.55312771  0.93152744    -0.74100
O473        O  0.92149736  0.57828707  0.95828635    -0.74000
O474        O  0.87967895  0.56200940  0.01629466    -0.79600
O475        O  0.92759964  0.54749343  0.96044224    -0.77800
O476        O  0.88094871  0.53200435  0.94601798    -1.13900
O477        O  0.89921690  0.50145096  0.94233259    -0.73100
C478        C  0.89516201  0.49737270  0.89602157     0.97600
C479        C  0.83307963  0.53269925  0.92993710     0.94000
Al480      Al  0.88667123  0.56248481  0.94583621     1.55600
O481        O  0.84939445  0.48243184  0.94679993    -0.77800
C482        C  0.93579364  0.57002805  0.95603979     0.98100
C483        C  0.88175144  0.55297860  0.84132866     0.93000
O484        O  0.86408514  0.53194130  0.85064170    -0.83100
O485        O  0.86835202  0.37233073  0.24391451    -0.82500
C486        C  0.87473471  0.32486993  0.07095066     0.96800
O487        O  0.88346900  0.34751348  0.07607554    -0.71700
O488        O  0.84965798  0.35758144  0.10128806    -0.75300
Al489      Al  0.88061252  0.36648826  0.12827879     1.49000
C490        C  0.83599035  0.36211013  0.12744391     0.92100
O491        O  0.82165729  0.30983912  0.19361838    -0.81500
O492        O  0.88730861  0.32829422  0.24393988    -0.75000
Al493      Al  0.84588940  0.34121732  0.21652029     1.90100
O494        O  0.84522770  0.29390255  0.19424209    -0.74100
O495        O  0.91137497  0.34349280  0.15904379    -0.74000
O496        O  0.86816836  0.31092571  0.10834295    -0.79600
O497        O  0.91213619  0.37801346  0.15078166    -0.77800
O498        O  0.86791171  0.34276670  0.17336882    -1.13900
O499        O  0.88102266  0.39093472  0.17133646    -0.73100
C500        C  0.87811496  0.39166852  0.21815872     0.97600
C501        C  0.82415790  0.29140285  0.19626572     0.94000
Al502      Al  0.87725833  0.32085048  0.17594544     1.55600
O503        O  0.83269944  0.35605644  0.17324785    -0.77800
C504        C  0.92313136  0.36663220  0.15739818     0.98100
C505        C  0.87342496  0.32661933  0.27923837     0.93000
O506        O  0.85427144  0.32714438  0.27055486    -0.83100
O507        O  0.88458886  0.37964665  0.75092786    -0.82500
C508        C  0.87910577  0.32955410  0.57235182     0.96800
O509        O  0.89215374  0.35218976  0.58005741    -0.71700
O510        O  0.86577007  0.37183118  0.60741819    -0.75300
Al511      Al  0.89403158  0.37253513  0.63430489     1.49000
C512        C  0.85315030  0.37726954  0.63517640     0.92100
O513        O  0.82955590  0.32361195  0.69649429    -0.81500
O514        O  0.88900929  0.32536444  0.74481302    -0.75000
Al515      Al  0.85783588  0.35137280  0.72164377     1.90100
O516        O  0.84491667  0.29964428  0.69348655    -0.74100
O517        O  0.91378498  0.33817077  0.66025906    -0.74000
O518        O  0.86932360  0.31485932  0.60817978    -0.79600
O519        O  0.92355532  0.37643479  0.65693755    -0.77800
O520        O  0.87691346  0.34843906  0.67722327    -1.13900
O521        O  0.89993875  0.39823044  0.67936684    -0.73100
C522        C  0.89708474  0.39902421  0.72607190     0.97600
C523        C  0.82660756  0.30246625  0.69604916     0.94000
Al524      Al  0.87904618  0.32163775  0.67647327     1.55600
O525        O  0.85005131  0.37116895  0.68085168    -0.77800
C526        C  0.92978683  0.36072405  0.66122213     0.98100
C527        C  0.87674479  0.32636696  0.78075210     0.93000
O528        O  0.86119214  0.33263643  0.77349845    -0.83100
C529        C  0.87125175  0.31503689  0.02001604    -0.06000
C530        C  0.84755574  0.30147607  0.00065295    -0.05900
C531        C  0.84382904  0.29816606  0.94889128    -0.24100
C532        C  0.86383137  0.30835126  0.91618711     0.18100
C533        C  0.88778966  0.31998868  0.93585822     0.15400
C534        C  0.89134655  0.32336060  0.98788853    -0.19100
C535        C  0.90774589  0.32977258  0.90296897    -0.20900
C536        C  0.90407234  0.33004020  0.85126101    -0.13500
C537        C  0.88045855  0.32072043  0.83219202     0.03200
C538        C  0.86034693  0.30883602  0.86442464    -0.25600
H539        H  0.83195972  0.29517308  0.02523860     0.08300
H540        H  0.82536637  0.28896401  0.93436202     0.11900
H541        H  0.90964533  0.33392862  0.00312543     0.11800
H542        H  0.92620061  0.33841428  0.91740292     0.11500
H543        H  0.91972670  0.33911936  0.82667781     0.12100
H544        H  0.84206000  0.30131116  0.84948636     0.14000
C545        C  0.87940836  0.32445887  0.33141497    -0.06000
C546        C  0.90361553  0.33767949  0.34829585    -0.05900
C547        C  0.90876051  0.33934862  0.39962084    -0.24100
C548        C  0.88974024  0.32757374  0.43439152     0.18100
C549        C  0.86552033  0.31257686  0.41723135     0.15400
C550        C  0.86051814  0.31119219  0.36578888    -0.19100
C551        C  0.84656009  0.30039163  0.45198392    -0.20900
C552        C  0.85131685  0.30442944  0.50339002    -0.13500
C553        C  0.87499629  0.32084533  0.52033876     0.03200
C554        C  0.89429214  0.33168934  0.48593609    -0.25600
H555        H  0.91836191  0.34791485  0.32210337     0.08300
H556        H  0.92744866  0.35066086  0.41221176     0.11900
H557        H  0.84182458  0.30067419  0.35261573     0.11800
H558        H  0.82794339  0.28864059  0.43937143     0.11500
H559        H  0.83629040  0.29603727  0.52965997     0.12100
H560        H  0.91262970  0.34426370  0.49923860     0.14000
C561        C  0.82970090  0.38013848  0.10890928    -0.06000
C562        C  0.82845783  0.39620227  0.14360230    -0.05900
C563        C  0.83117909  0.41838527  0.12787651    -0.24100
C564        C  0.83473370  0.42477913  0.07698024     0.18100
C565        C  0.83386389  0.40779735  0.04140542     0.15400
C566        C  0.83146961  0.38569957  0.05753889    -0.19100
C567        C  0.83683175  0.41378409  0.99042192    -0.20900
C568        C  0.84157309  0.43665876  0.97492080    -0.13500
C569        C  0.84396388  0.45432654  0.01001668     0.03200
C570        C  0.84020478  0.44816481  0.06119853    -0.25600
H571        H  0.82754832  0.39267237  0.18353697     0.08300
H572        H  0.83161046  0.43099461  0.15580371     0.11900
H573        H  0.83268003  0.37363257  0.03044771     0.11800
H574        H  0.83621380  0.40104380  0.96258844     0.11500
H575        H  0.84478434  0.44101876  0.93533742     0.12100
H576        H  0.84214074  0.46166100  0.08857906     0.14000
C577        C  0.90295065  0.48192997  0.87123560    -0.06000
C578        C  0.90639637  0.46556239  0.90034708    -0.05900
C579        C  0.90913304  0.44747657  0.87742538    -0.24100
C580        C  0.90864591  0.44563797  0.82508276     0.18100
C581        C  0.90735014  0.46337456  0.79554703     0.15400
C582        C  0.90443187  0.48141314  0.81885514    -0.19100
C583        C  0.90735709  0.46178235  0.74317547    -0.20900
C584        C  0.90650218  0.44168361  0.72038030    -0.13500
C585        C  0.90530890  0.42279340  0.74969221     0.03200
C586        C  0.90760488  0.42541171  0.80192229    -0.25600
H587        H  0.90543369  0.46573462  0.94094984     0.08300
H588        H  0.91041636  0.43424189  0.90060916     0.11900
H589        H  0.90210381  0.49421629  0.79632242     0.11800
H590        H  0.90666114  0.47533450  0.71994509     0.11500
H591        H  0.90474416  0.44000039  0.67988926     0.12100
H592        H  0.90689167  0.41096149  0.82458475     0.14000
C593        C  0.88184489  0.56040679  0.59896294    -0.06000
C594        C  0.85782195  0.54945501  0.61647770    -0.05900
C595        C  0.85305996  0.54717051  0.66791076    -0.24100
C596        C  0.87233263  0.55626039  0.70248703     0.18100
C597        C  0.89668779  0.56873906  0.68513955     0.15400
C598        C  0.90129766  0.57040595  0.63328877    -0.19100
C599        C  0.91590477  0.57839563  0.72002617    -0.20900
C600        C  0.91102658  0.57465106  0.77149797    -0.13500
C601        C  0.88690752  0.56086443  0.78861087     0.03200
C602        C  0.86762949  0.55220686  0.75399670    -0.25600
H603        H  0.84267113  0.54134417  0.59030603     0.08300
H604        H  0.83430841  0.53766862  0.68061685     0.11900
H605        H  0.91985732  0.57874348  0.61963274     0.11800
H606        H  0.93467360  0.58821220  0.70745596     0.11500
H607        H  0.92610277  0.58137040  0.79771752     0.12100
H608        H  0.84895997  0.54169724  0.76712884     0.14000
C609        C  0.87382831  0.56159176  0.28685725    -0.06000
C610        C  0.85278500  0.55749405  0.26138336    -0.05900
C611        C  0.85281984  0.55967937  0.20916274    -0.24100
C612        C  0.87366793  0.56509602  0.18153328     0.18100
C613        C  0.89525161  0.57033149  0.20738448     0.15400
C614        C  0.89534503  0.56912404  0.25998894    -0.19100
C615        C  0.91582643  0.57479199  0.18011307    -0.20900
C616        C  0.91449093  0.57222425  0.12807828    -0.13500
C617        C  0.89276385  0.56566585  0.10219484     0.03200
C618        C  0.87273316  0.56335025  0.12874960    -0.25600
H619        H  0.83602835  0.55165738  0.28183749     0.08300
H620        H  0.83614067  0.55567921  0.19024019     0.11900
H621        H  0.91147079  0.57189029  0.27959198     0.11800
H622        H  0.93249452  0.57883957  0.19917627     0.11500
H623        H  0.93016545  0.57416566  0.10806404     0.12100
H624        H  0.85585858  0.55796791  0.10899602     0.14000
C625        C  0.83977991  0.45823969  0.51536849    -0.06000
C626        C  0.83325963  0.43832782  0.48296958    -0.05900
C627        C  0.83234324  0.41720820  0.50042800    -0.24100
C628        C  0.83756980  0.41544116  0.55081482     0.18100
C629        C  0.84182813  0.43441210  0.58463431     0.15400
C630        C  0.84306208  0.45572916  0.56669354    -0.19100
C631        C  0.84627674  0.43239855  0.63531778    -0.20900
C632        C  0.84790365  0.41254244  0.65179546    -0.13500
C633        C  0.84573109  0.39456656  0.61782367     0.03200
C634        C  0.83994874  0.39577719  0.56742132    -0.25600
H635        H  0.83084187  0.43982414  0.44314475     0.08300
H636        H  0.82871146  0.40277727  0.47399250     0.11900
H637        H  0.84808839  0.47093369  0.59203319     0.11800
H638        H  0.84940168  0.44662135  0.66190547     0.11500
H639        H  0.85251134  0.41212873  0.69079755     0.12100
H640        H  0.83819260  0.38199583  0.54101032     0.14000
C641        C  0.88415258  0.41500111  0.24182827    -0.06000
C642        C  0.88550583  0.43394086  0.21243258    -0.05900
C643        C  0.88732003  0.45457220  0.23513644    -0.24100
C644        C  0.88811184  0.45670533  0.28757445     0.18100
C645        C  0.88817671  0.43834766  0.31719624     0.15400
C646        C  0.88609756  0.41760129  0.29417307    -0.19100
C647        C  0.88937723  0.44056758  0.36952967    -0.20900
C648        C  0.88955649  0.46029723  0.39249950    -0.13500
C649        C  0.88823576  0.47799255  0.36360167     0.03200
C650        C  0.88793762  0.47636271  0.31101321    -0.25600
H651        H  0.88397697  0.43228921  0.17191591     0.08300
H652        H  0.88741337  0.46849815  0.21177312     0.11900
H653        H  0.88523048  0.40314574  0.31706326     0.11800
H654        H  0.88949721  0.42670955  0.39275852     0.11500
H655        H  0.88948007  0.46103424  0.43315032     0.12100
H656        H  0.88691006  0.48996343  0.28856290     0.14000
C657        C  0.96238355  0.58648040  0.94800336    -0.06000
C658        C  0.97295388  0.61186206  0.94279497    -0.05900
C659        C  0.99801232  0.62679785  0.93321238    -0.24100
C660        C  0.01289632  0.61658569  0.92835420     0.18100
C661        C  0.00233567  0.59112326  0.93419875     0.15400
C662        C  0.97740619  0.57639651  0.94414379    -0.19100
C663        C  0.01674634  0.58056305  0.92934095    -0.20900
C664        C  0.04136629  0.59493898  0.91792346    -0.13500
C665        C  0.05232841  0.62031304  0.91123873     0.03200
C666        C  0.03798314  0.63115235  0.91715311    -0.25600
H667        H  0.96182727  0.62013505  0.94567745     0.08300
H668        H  0.00567629  0.64626822  0.92901395     0.11900
H669        H  0.96964445  0.55688009  0.94807889     0.11800
H670        H  0.00892073  0.56107751  0.93392393     0.11500
H671        H  0.05185880  0.58600338  0.91429086     0.12100
H672        H  0.04617163  0.65066783  0.91236853     0.14000
C673        C  0.04595194  0.61777981  0.39705781    -0.06000
C674        C  0.03361188  0.59209169  0.39733766    -0.05900
C675        C  0.00883238  0.57833037  0.40676828    -0.24100
C676        C  0.99562238  0.58982751  0.41600462     0.18100
C677        C  0.00739351  0.61557105  0.41558349     0.15400
C678        C  0.03268378  0.62953732  0.40613591    -0.19100
C679        C  0.99354410  0.62663264  0.42480826    -0.20900
C680        C  0.96842168  0.61226041  0.43433624    -0.13500
C681        C  0.95685603  0.58664802  0.43498152     0.03200
C682        C  0.97072164  0.57570961  0.42569874    -0.25600
H683        H  0.04315174  0.58236932  0.39065873     0.08300
H684        H  0.00000089  0.55860448  0.40697100     0.11900
H685        H  0.04194208  0.64928574  0.40618961     0.11800
H686        H  0.00210637  0.64632062  0.42467016     0.11500
H687        H  0.95809748  0.62114638  0.44137233     0.12100
H688        H  0.96212261  0.55599567  0.42585529     0.14000
C689        C  0.11891797  0.67403889  0.55825263    -0.06000
C690        C  0.09533445  0.65804353  0.57608782    -0.05900
C691        C  0.09046401  0.65642317  0.62750783    -0.24100
C692        C  0.10905060  0.67111323  0.66159672     0.18100
C693        C  0.13235549  0.68870324  0.64350633     0.15400
C694        C  0.13722898  0.68985139  0.59185297    -0.19100
C695        C  0.15071482  0.70382851  0.67769114    -0.20900
C696        C  0.14658385  0.70027964  0.72939607    -0.13500
C697        C  0.12418266  0.68139570  0.74740075     0.03200
C698        C  0.10518503  0.66747001  0.71345048    -0.25600
H699        H  0.08107566  0.64572314  0.55052801     0.08300
H700        H  0.07244445  0.64303311  0.64074244     0.11900
H701        H  0.15542173  0.70233888  0.57794675     0.11800
H702        H  0.16858783  0.71759639  0.66447929     0.11500
H703        H  0.16146784  0.71102390  0.75515834     0.12100
H704        H  0.08785979  0.65288178  0.72738255     0.14000
C705        C  0.11711136  0.67547397  0.24546464    -0.06000
C706        C  0.09455466  0.66369980  0.22045449    -0.05900
C707        C  0.09337878  0.66522855  0.16832143    -0.24100
C708        C  0.11487040  0.67785594  0.14029908     0.18100
C709        C  0.13757686  0.69084753  0.16566498     0.15400
C710        C  0.13849277  0.69002625  0.21829062    -0.19100
C711        C  0.15913761  0.70273907  0.13783575    -0.20900
C712        C  0.15838638  0.70015779  0.08576842    -0.13500
C713        C  0.13606011  0.68611762  0.06042273     0.03200
C714        C  0.11422327  0.67603316  0.08756960    -0.25600
H715        H  0.07792065  0.65226366  0.24115367     0.08300
H716        H  0.07582436  0.65521989  0.14974591     0.11900
H717        H  0.15593185  0.69871063  0.23754934     0.11800
H718        H  0.17666663  0.71285939  0.15648452     0.11500
H719        H  0.17543380  0.70835614  0.06531691     0.12100
H720        H  0.09698185  0.66507053  0.06823621     0.14000
C721        C  0.04781884  0.42519700  0.69442745    -0.06000
C722        C  0.03656037  0.43901209  0.70282121    -0.05900
C723        C  0.01156594  0.42870039  0.69851364    -0.24100
C724        C  0.99684438  0.40413876  0.68596505     0.18100
C725        C  0.00727852  0.38946342  0.67839879     0.15400
C726        C  0.03293595  0.40012281  0.68261141    -0.19100
C727        C  0.99171563  0.36461338  0.66636359    -0.20900
C728        C  0.96635586  0.35476292  0.66132392    -0.13500
C729        C  0.95621398  0.36966997  0.66779365     0.03200
C730        C  0.97175959  0.39428644  0.68060000    -0.25600
H731        H  0.04713576  0.45823031  0.71224862     0.08300
H732        H  0.00375381  0.44010812  0.70465271     0.11900
H733        H  0.04120786  0.38917459  0.67604553     0.11800
H734        H  0.99914153  0.35286329  0.66056455     0.11500
H735        H  0.95478394  0.33567689  0.65164717     0.12100
H736        H  0.96431956  0.40604595  0.68650768     0.14000
C737        C  0.10784132  0.52214463  0.60074149    -0.06000
C738        C  0.10492053  0.53927030  0.62848204    -0.05900
C739        C  0.10307928  0.55754062  0.60405698    -0.24100
C740        C  0.10404858  0.55884823  0.55160319     0.18100
C741        C  0.10497363  0.54049010  0.52340427     0.15400
C742        C  0.10672038  0.52215662  0.54818555    -0.19100
C743        C  0.10577984  0.54168866  0.47094157    -0.20900
C744        C  0.10737249  0.56177446  0.44676948    -0.13500
C745        C  0.10827164  0.58094337  0.47476993     0.03200
C746        C  0.10566693  0.57897605  0.52705108    -0.25600
H747        H  0.10569584  0.53956845  0.66912914     0.08300
H748        H  0.10214195  0.57131913  0.62620996     0.11900
H749        H  0.10873004  0.50884540  0.52658404     0.11800
H750        H  0.10633820  0.52770380  0.44877055     0.11500
H751        H  0.10941137  0.56298627  0.40631408     0.12100
H752        H  0.10616453  0.59365415  0.54871464     0.14000
C753        C  0.16913943  0.55265945  0.72816516    -0.06000
C754        C  0.16576363  0.56717841  0.69311502    -0.05900
C755        C  0.16691205  0.58875708  0.70788094    -0.24100
C756        C  0.17209024  0.59664576  0.75783303     0.18100
C757        C  0.17769354  0.58338578  0.79241917     0.15400
C758        C  0.17576854  0.56120700  0.77763823    -0.19100
C759        C  0.18369306  0.59181495  0.84194273    -0.20900
C760        C  0.18214786  0.61185950  0.85806557    -0.13500
C761        C  0.17413096  0.62363979  0.82527328     0.03200
C762        C  0.17018716  0.61658114  0.77448804    -0.25600
H763        H  0.16037899  0.56090821  0.65483441     0.08300
H764        H  0.16274481  0.59871099  0.68066860     0.11900
H765        H  0.17834584  0.55014431  0.80492721     0.11800
H766        H  0.18840501  0.58218755  0.86888546     0.11500
H767        H  0.18526251  0.61678694  0.89746475     0.12100
H768        H  0.16404654  0.62548854  0.74877017     0.14000
C769        C  0.04125177  0.41640924  0.17927245    -0.06000
C770        C  0.03073857  0.39110040  0.17233094    -0.05900
C771        C  0.00546522  0.37596349  0.16659612    -0.24100
C772        C  0.99026855  0.38587432  0.16779706     0.18100
C773        C  0.00083135  0.41133405  0.17456228     0.15400
C774        C  0.02607930  0.42633561  0.18013742    -0.19100
C775        C  0.98601782  0.42152702  0.17578950    -0.20900
C776        C  0.96093851  0.40673652  0.17026710    -0.13500
C777        C  0.94996300  0.38133517  0.16338980     0.03200
C778        C  0.96478141  0.37092337  0.16238384    -0.25600
H779        H  0.04205791  0.38299603  0.17123512     0.08300
H780        H  0.99782399  0.35653687  0.16130234     0.11900
H781        H  0.03388761  0.44580915  0.18537631     0.11800
H782        H  0.99382373  0.44098939  0.18105716     0.11500
H783        H  0.95008270  0.41535235  0.17164439     0.12100
H784        H  0.95658340  0.35141447  0.15711000     0.14000
C785        C  0.11971877  0.58800621  0.97171639    -0.06000
C786        C  0.11887949  0.56902278  0.94318113    -0.05900
C787        C  0.11506476  0.54781366  0.96632749    -0.24100
C788        C  0.11179964  0.54520453  0.01836290     0.18100
C789        C  0.11128695  0.56366816  0.04703594     0.15400
C790        C  0.11541784  0.58509108  0.02353712    -0.19100
C791        C  0.10766663  0.56080831  0.09900902    -0.20900
C792        C  0.10618583  0.54061576  0.12271350    -0.13500
C793        C  0.10839818  0.52307644  0.09483731     0.03200
C794        C  0.11030024  0.52501343  0.04241834    -0.25600
H795        H  0.12217830  0.57099785  0.90305770     0.08300
H796        H  0.11537228  0.53381547  0.94381243     0.11900
H797        H  0.11577410  0.59959796  0.04548556     0.11800
H798        H  0.10700285  0.57462199  0.12149394     0.11500
H799        H  0.10484304  0.53955222  0.16330243     0.12100
H800        H  0.11189779  0.51151449  0.02068114     0.14000
C801        C  0.16332839  0.54641038  0.23566366    -0.06000
C802        C  0.16532673  0.56392013  0.20090164    -0.05900
C803        C  0.16782317  0.58589431  0.21717814    -0.24100
C804        C  0.16888343  0.59100006  0.26854910     0.18100
C805        C  0.16945479  0.57465023  0.30361705     0.15400
C806        C  0.16635404  0.55225688  0.28701987    -0.19100
C807        C  0.17131533  0.58020272  0.35490344    -0.20900
C808        C  0.17032519  0.60046742  0.37148978    -0.13500
C809        C  0.16701819  0.61530553  0.33717652     0.03200
C810        C  0.16749808  0.61114814  0.28553090    -0.25600
H811        H  0.16283035  0.55976235  0.16109780     0.08300
H812        H  0.16762042  0.59827948  0.18968676     0.11900
H813        H  0.16483730  0.53886705  0.31403052     0.11800
H814        H  0.17214222  0.56814298  0.38236022     0.11500
H815        H  0.16993693  0.60318078  0.41158048     0.12100
H816        H  0.16503811  0.62250055  0.25878842     0.14000
C817        C  0.12678702  0.44287453  0.83084349    -0.06000
C818        C  0.14925174  0.44790455  0.85046036    -0.05900
C819        C  0.15194209  0.44636931  0.90217370    -0.24100
C820        C  0.13210811  0.43964150  0.93440913     0.18100
C821        C  0.10889949  0.43240041  0.91411123     0.15400
C822        C  0.10643391  0.43414857  0.86234605    -0.19100
C823        C  0.08897746  0.42529421  0.94624494    -0.20900
C824        C  0.09245070  0.42739269  0.99820581    -0.13500
C825        C  0.11587088  0.43676360  0.01830461     0.03200
C826        C  0.13543264  0.44180295  0.98652077    -0.25600
H827        H  0.16504501  0.45465075  0.82631312     0.08300
H828        H  0.16977140  0.45168344  0.91715994     0.11900
H829        H  0.08904687  0.43013606  0.84682410     0.11800
H830        H  0.07103031  0.41942822  0.93117953     0.11500
H831        H  0.07724693  0.42349717  0.02240554     0.12100
H832        H  0.15351234  0.44889188  0.00224910     0.14000
C833        C  0.11949183  0.44237134  0.33003478    -0.06000
C834        C  0.14281250  0.44819113  0.34577062    -0.05900
C835        C  0.14796290  0.44869076  0.39677674    -0.24100
C836        C  0.12969118  0.44295296  0.43244811     0.18100
C837        C  0.10567562  0.43533729  0.41658381     0.15400
C838        C  0.10078871  0.43536789  0.36532242    -0.19100
C839        C  0.08730846  0.42901766  0.45242266    -0.20900
C840        C  0.09304002  0.43175478  0.50355698    -0.13500
C841        C  0.11721143  0.44113294  0.51916791     0.03200
C842        C  0.13531415  0.44594708  0.48365970    -0.25600
H843        H  0.15739446  0.45374668  0.31876051     0.08300
H844        H  0.16639342  0.45436932  0.40837706     0.11900
H845        H  0.08273615  0.43076546  0.35293282     0.11800
H846        H  0.06876893  0.42290287  0.44089751     0.11500
H847        H  0.07893906  0.42809064  0.53070082     0.12100
H848        H  0.15397599  0.45306147  0.49587724     0.14000
C849        C  0.26773243  0.45897468  0.58243660    -0.06000
C850        C  0.24603011  0.43635055  0.57616548    -0.05900
C851        C  0.22346297  0.43337415  0.59008971    -0.24100
C852        C  0.22219089  0.45283028  0.61159025     0.18100
C853        C  0.24394340  0.47556628  0.61815834     0.15400
C854        C  0.26639004  0.47857007  0.60297623    -0.19100
C855        C  0.24301756  0.49495392  0.64047869    -0.20900
C856        C  0.22073848  0.49220129  0.65474471    -0.13500
C857        C  0.19875371  0.47000400  0.64707464     0.03200
C858        C  0.19965861  0.45012895  0.62622633    -0.25600
H859        H  0.24657577  0.42080044  0.56137445     0.08300
H860        H  0.20707390  0.41574676  0.58484973     0.11900
H861        H  0.28298513  0.49592183  0.60937963     0.11800
H862        H  0.25953304  0.51242648  0.64627853     0.11500
H863        H  0.22068657  0.50781672  0.67069612     0.12100
H864        H  0.18288419  0.43297412  0.61965292     0.14000
C865        C  0.26850525  0.47036866  0.08393928    -0.06000
C866        C  0.26837881  0.49152993  0.07002593    -0.05900
C867        C  0.24921012  0.49482963  0.08412371    -0.24100
C868        C  0.22985163  0.47707543  0.11264401     0.18100
C869        C  0.22952969  0.45550996  0.12627709     0.15400
C870        C  0.24880127  0.45223223  0.11162833    -0.19100
C871        C  0.20998934  0.43768976  0.15449992    -0.20900
C872        C  0.19054956  0.44084256  0.16746435    -0.13500
C873        C  0.19060787  0.46208183  0.15337318     0.03200
C874        C  0.21060849  0.48037834  0.12693607    -0.25600
H875        H  0.28347430  0.50587247  0.04926680     0.08300
H876        H  0.24968192  0.51141845  0.07322678     0.11900
H877        H  0.24891620  0.43604411  0.12347586     0.11800
H878        H  0.20947134  0.42109275  0.16551653     0.11500
H879        H  0.17520334  0.42645203  0.18760072     0.12100
H880        H  0.21061377  0.49664345  0.11518504     0.14000
C881        C  0.31073461  0.43996024  0.73129041    -0.06000
C882        C  0.29656915  0.44814828  0.75538961    -0.05900
C883        C  0.29443005  0.44763509  0.80764208    -0.24100
C884        C  0.30678416  0.43930891  0.83729695     0.18100
C885        C  0.32020643  0.42995182  0.81361123     0.15400
C886        C  0.32174753  0.42991392  0.76062132    -0.19100
C887        C  0.33320637  0.42237889  0.84346989    -0.20900
C888        C  0.33422967  0.42556272  0.89566154    -0.13500
C889        C  0.32169315  0.43566320  0.91932422     0.03200
C890        C  0.30722200  0.44166233  0.89005698    -0.25600
H891        H  0.28789945  0.45597687  0.73368657     0.08300
H892        H  0.28405435  0.45486413  0.82491843     0.11900
H893        H  0.33304655  0.42394499  0.74261583     0.11800
H894        H  0.34358992  0.41513771  0.82629936     0.11500
H895        H  0.34556297  0.42090154  0.91758787     0.12100
H896        H  0.29788233  0.44989387  0.90790614     0.14000
C897        C  0.33040323  0.43960131  0.41677296    -0.06000
C898        C  0.34613037  0.43502071  0.38804899    -0.05900
C899        C  0.34492371  0.43436641  0.33549749    -0.24100
C900        C  0.32849168  0.43912042  0.31030932     0.18100
C901        C  0.31231553  0.44344345  0.33867594     0.15400
C902        C  0.31295840  0.44305905  0.39174939    -0.19100
C903        C  0.29674045  0.44941095  0.31344023    -0.20900
C904        C  0.29791639  0.45210594  0.26106547    -0.13500
C905        C  0.31399732  0.44798886  0.23258033     0.03200
C906        C  0.32881709  0.44085052  0.25741975    -0.25600
H907        H  0.35981751  0.43248658  0.40641107     0.08300
H908        H  0.35755839  0.43113875  0.31453043     0.11900
H909        H  0.30110475  0.44713915  0.41345675     0.11800
H910        H  0.28428442  0.45290727  0.33437463     0.11500
H911        H  0.28641295  0.45768786  0.24271368     0.12100
H912        H  0.34161347  0.43808592  0.23582823     0.14000
C913        C  0.45403092  0.62101746  0.92321815    -0.06000
C914        C  0.45259345  0.62383913  0.97525484    -0.05900
C915        C  0.43267884  0.60633964  0.00309808    -0.24100
C916        C  0.41417581  0.58511808  0.97979009     0.18100
C917        C  0.41480794  0.58259907  0.92707620     0.15400
C918        C  0.43441306  0.60084946  0.89896783    -0.19100
C919        C  0.39696749  0.56091892  0.90400847    -0.20900
C920        C  0.37993655  0.54129154  0.93309197    -0.13500
C921        C  0.37985755  0.54307487  0.98577609     0.03200
C922        C  0.39633710  0.56555159  0.00869521    -0.25600
H923        H  0.46760587  0.63897870  0.99485917     0.08300
H924        H  0.43260282  0.60863746  0.04341633     0.11900
H925        H  0.43564491  0.59807295  0.85912337     0.11800
H926        H  0.39712252  0.55856543  0.86371260     0.11500
H927        H  0.36754748  0.52418957  0.91452351     0.12100
H928        H  0.39683076  0.56702284  0.04930480     0.14000
C929        C  0.47951517  0.58797741  0.76240498    -0.06000
C930        C  0.48570558  0.58923041  0.71140541    -0.05900
C931        C  0.47013722  0.57101736  0.67789144    -0.24100
C932        C  0.44782034  0.55163259  0.69470394     0.18100
C933        C  0.44207864  0.54961039  0.74651537     0.15400
C934        C  0.45828703  0.56752369  0.78029633    -0.19100
C935        C  0.41942160  0.53074177  0.76310180    -0.20900
C936        C  0.40200990  0.51504536  0.72843362    -0.13500
C937        C  0.40713960  0.51759986  0.67671755     0.03200
C938        C  0.43046679  0.53528880  0.66021503    -0.25600
H939        H  0.50212882  0.60491394  0.69710771     0.08300
H940        H  0.47490032  0.57284347  0.63843858     0.11900
H941        H  0.45333074  0.56669665  0.81950850     0.11800
H942        H  0.41471238  0.52888016  0.80258996     0.11500
H943        H  0.38417958  0.50135390  0.74197071     0.12100
H944        H  0.43448301  0.53750092  0.62035858     0.14000
C945        C  0.55426768  0.67358387  0.68876575    -0.06000
C946        C  0.55916789  0.65558195  0.67269080    -0.05900
C947        C  0.56025527  0.65147603  0.62157826    -0.24100
C948        C  0.55692880  0.66568750  0.58609536     0.18100
C949        C  0.55323239  0.68472017  0.60223853     0.15400
C950        C  0.55157659  0.68831807  0.65359932    -0.19100
C951        C  0.55058403  0.69934998  0.56669863    -0.20900
C952        C  0.55088110  0.69469799  0.51556737    -0.13500
C953        C  0.55335068  0.67509086  0.49945988     0.03200
C954        C  0.55663581  0.66080106  0.53479417    -0.25600
H955        H  0.56090212  0.64387685  0.69967967     0.08300
H956        H  0.56319153  0.63689975  0.60981662     0.11900
H957        H  0.54773007  0.70218442  0.66627109     0.11800
H958        H  0.54788412  0.71408409  0.57842922     0.11500
H959        H  0.54817845  0.70579305  0.48861621     0.12100
H960        H  0.55869342  0.64574886  0.52232423     0.14000
C961        C  0.56277109  0.68351251  0.18858400    -0.06000
C962        C  0.57580477  0.67254407  0.17204253    -0.05900
C963        C  0.57899073  0.67050332  0.12075840    -0.24100
C964        C  0.56939426  0.67965102  0.08554004     0.18100
C965        C  0.55829723  0.69277305  0.10217479     0.15400
C966        C  0.55498449  0.69454214  0.15365606    -0.19100
C967        C  0.54928150  0.70250505  0.06696788    -0.20900
C968        C  0.54967535  0.69776938  0.01588944    -0.13500
C969        C  0.55876822  0.68302038  0.99965017     0.03200
C970        C  0.56931350  0.67461749  0.03424275    -0.25600
H971        H  0.58199234  0.66400755  0.19856333     0.08300
H972        H  0.58788325  0.66074597  0.10864356     0.11900
H973        H  0.54518501  0.70331050  0.16642102     0.11800
H974        H  0.54096838  0.71282289  0.07905001     0.11500
H975        H  0.54142853  0.70427044  0.98933312     0.12100
H976        H  0.57641621  0.66330488  0.02141687     0.14000
C977        C  0.45230939  0.61195346  0.40203517    -0.06000
C978        C  0.43456123  0.59527888  0.36837637    -0.05900
C979        C  0.41327931  0.57478075  0.38600738    -0.24100
C980        C  0.40901618  0.57080676  0.43775314     0.18100
C981        C  0.42563626  0.58861832  0.47187711     0.15400
C982        C  0.44735685  0.60887389  0.45389065    -0.19100
C983        C  0.42092756  0.58508415  0.52355600    -0.20900
C984        C  0.40095171  0.56344655  0.54138493    -0.13500
C985        C  0.38556373  0.54464566  0.50807140     0.03200
C986        C  0.38929157  0.54874964  0.45604192    -0.25600
H987        H  0.43803082  0.59702542  0.32834136     0.08300
H988        H  0.40067649  0.56150589  0.35916426     0.11900
H989        H  0.46093136  0.62153788  0.48023099     0.11800
H990        H  0.43328092  0.59859853  0.55033941     0.11500
H991        H  0.39869753  0.56062603  0.58158895     0.12100
H992        H  0.37760259  0.53435175  0.43000952     0.14000
C993        C  0.40688252  0.52049759  0.16540003    -0.06000
C994        C  0.40272232  0.51826579  0.21747864    -0.05900
C995        C  0.42095528  0.53377016  0.25079164    -0.24100
C996        C  0.44347499  0.55206541  0.23243550     0.18100
C997        C  0.44803323  0.55410657  0.18009922     0.15400
C998        C  0.42981859  0.53794543  0.14689717    -0.19100
C999        C  0.47016774  0.57319612  0.16173455    -0.20900
C1000       C  0.48699487  0.59086627  0.19463659    -0.13500
C1001       C  0.48221908  0.58921658  0.24637778     0.03200
C1002       C  0.46089044  0.56928496  0.26532270    -0.25600
H1003       H  0.38506787  0.50488463  0.23237782     0.08300
H1004       H  0.41710908  0.53208786  0.29069773     0.11900
H1005       H  0.43290841  0.54001220  0.10670870     0.11800
H1006       H  0.47392810  0.57512644  0.12180570     0.11500
H1007       H  0.50335571  0.60632501  0.17954570     0.12100
H1008       H  0.45693810  0.56830443  0.30515512     0.14000
C1009       C  0.43536126  0.38716789  0.60504069    -0.06000
C1010       C  0.44877897  0.41290450  0.60389107    -0.05900
C1011       C  0.43727959  0.42632556  0.59946408    -0.24100
C1012       C  0.41194800  0.41449789  0.59579264     0.18100
C1013       C  0.39789744  0.38872611  0.59688038     0.15400
C1014       C  0.40969965  0.37508869  0.60167504    -0.19100
C1015       C  0.37239368  0.37728006  0.59282854    -0.20900
C1016       C  0.36114755  0.39121377  0.58713074    -0.13500
C1017       C  0.37516975  0.41686783  0.58566661     0.03200
C1018       C  0.40060959  0.42825316  0.59051845    -0.25600
H1019       H  0.46848045  0.42296860  0.60653949     0.08300
H1020       H  0.44830438  0.44606897  0.59869521     0.11900
H1021       H  0.39905223  0.35533852  0.60260422     0.11800
H1022       H  0.36116150  0.35756899  0.59360706     0.11500
H1023       H  0.34150905  0.38191130  0.58347937     0.12100
H1024       H  0.41179652  0.44798827  0.58946348     0.14000
C1025       C  0.36506601  0.41515667  0.08130915    -0.06000
C1026       C  0.35324266  0.39436420  0.11178099    -0.05900
C1027       C  0.36352377  0.37971898  0.11918376    -0.24100
C1028       C  0.38553999  0.38554189  0.09555024     0.18100
C1029       C  0.39663356  0.40575293  0.06267257     0.15400
C1030       C  0.38642180  0.42039269  0.05604127    -0.19100
C1031       C  0.41833546  0.41166983  0.03828164    -0.20900
C1032       C  0.42996530  0.39880682  0.04894487    -0.13500
C1033       C  0.42008347  0.37967621  0.08389803     0.03200
C1034       C  0.39729479  0.37236016  0.10570458    -0.25600
H1035       H  0.33659127  0.38999304  0.13118924     0.08300
H1036       H  0.35459364  0.36423180  0.14421497     0.11900
H1037       H  0.39532547  0.43618879  0.03168194     0.11800
H1038       H  0.42683522  0.42687597  0.01244247     0.11500
H1039       H  0.44732857  0.40446260  0.03119403     0.12100
H1040       H  0.38959613  0.35761586  0.13270947     0.14000
C1041       C  0.44941675  0.32891004  0.95142540    -0.06000
C1042       C  0.43207969  0.33428891  0.93277339    -0.05900
C1043       C  0.42978357  0.33650980  0.88100465    -0.24100
C1044       C  0.44469128  0.33324621  0.84699473     0.18100
C1045       C  0.46122409  0.32652424  0.86541219     0.15400
C1046       C  0.46346399  0.32441943  0.91728122    -0.19100
C1047       C  0.47596694  0.32290785  0.83177293    -0.20900
C1048       C  0.47493411  0.32664538  0.78047658    -0.13500
C1049       C  0.45933751  0.33423511  0.76198154     0.03200
C1050       C  0.44402024  0.33733669  0.79517799    -0.25600
H1051       H  0.42108570  0.33791224  0.95829831     0.08300
H1052       H  0.41686049  0.34146676  0.86769091     0.11900
H1053       H  0.47680064  0.32011723  0.93112809     0.11800
H1054       H  0.48871122  0.31774262  0.84524838     0.11500
H1055       H  0.48703981  0.32451026  0.75524419     0.12100
H1056       H  0.43210471  0.34339682  0.78085681     0.14000
C1057       C  0.44354536  0.33802092  0.26505898    -0.06000
C1058       C  0.43657080  0.35202940  0.29358628    -0.05900
C1059       C  0.43615100  0.35099550  0.34607018    -0.24100
C1060       C  0.44347005  0.33650584  0.37117720     0.18100
C1061       C  0.45006070  0.32193982  0.34283081     0.15400
C1062       C  0.44953046  0.32237464  0.28994568    -0.19100
C1063       C  0.45843152  0.30829746  0.36783026    -0.20900
C1064       C  0.46142703  0.31002888  0.41999049    -0.13500
C1065       C  0.45545639  0.32485686  0.44839793     0.03200
C1066       C  0.44568561  0.33743915  0.42391011    -0.25600
H1067       H  0.43203880  0.36431870  0.27515874     0.08300
H1068       H  0.43113000  0.36235510  0.36702242     0.11900
H1069       H  0.45545213  0.31192190  0.26827801     0.11800
H1070       H  0.46364351  0.29709074  0.34686850     0.11500
H1071       H  0.46901650  0.30020520  0.43815771     0.12100
H1072       H  0.44145468  0.34925495  0.44546057     0.14000
C1073       C  0.80934490  0.53151592  0.92272634    -0.06000
C1074       C  0.78734044  0.50970724  0.93248660    -0.05900
C1075       C  0.76485744  0.50736746  0.92075951    -0.24100
C1076       C  0.76381425  0.52670625  0.89844462     0.18100
C1077       C  0.78574686  0.54876581  0.88844494     0.15400
C1078       C  0.80834218  0.55109914  0.90090489    -0.19100
C1079       C  0.78466597  0.56807311  0.86600966    -0.20900
C1080       C  0.76213967  0.56582700  0.85496693    -0.13500
C1081       C  0.74014871  0.54413065  0.86548456     0.03200
C1082       C  0.74121489  0.52445112  0.88656682    -0.25600
H1083       H  0.78751864  0.49426216  0.94876978     0.08300
H1084       H  0.74826378  0.49031292  0.92877490     0.11900
H1085       H  0.82512630  0.56787481  0.89225134     0.11800
H1086       H  0.80125292  0.58509221  0.85775352     0.11500
H1087       H  0.76192120  0.58129445  0.83892604     0.12100
H1088       H  0.72446314  0.50769150  0.89547660     0.14000
C1089       C  0.63746286  0.59233755  0.83401986    -0.06000
C1090       C  0.65106671  0.61761299  0.82477861    -0.05900
C1091       C  0.63992361  0.63184384  0.82698949    -0.24100
C1092       C  0.61498145  0.62109361  0.83870805     0.18100
C1093       C  0.60138743  0.59572252  0.84782561     0.15400
C1094       C  0.61256526  0.58170635  0.84538791    -0.19100
C1095       C  0.57665221  0.58448971  0.85944918    -0.20900
C1096       C  0.56525365  0.59807760  0.86214361    -0.13500
C1097       C  0.57813889  0.62341825  0.85335420     0.03200
C1098       C  0.60326391  0.63495507  0.84162916    -0.25600
H1099       H  0.67024045  0.62633503  0.81558980     0.08300
H1100       H  0.65081401  0.65123048  0.81961436     0.11900
H1101       H  0.60167517  0.56228820  0.85267640     0.11800
H1102       H  0.56600826  0.56504979  0.86657800     0.11500
H1103       H  0.54605352  0.58848620  0.87148669     0.12100
H1104       H  0.61351765  0.65440668  0.83459414     0.14000
C1105       C  0.52416844  0.42137911  0.01725110    -0.06000
C1106       C  0.52166235  0.41753529  0.96502830    -0.05900
C1107       C  0.53825496  0.43521285  0.93219153    -0.24100
C1108       C  0.55797457  0.45682325  0.95111433     0.18100
C1109       C  0.56001842  0.46139117  0.00348885     0.15400
C1110       C  0.54273876  0.44382515  0.03622951    -0.19100
C1111       C  0.58027983  0.48262212  0.02243137    -0.20900
C1112       C  0.59913599  0.49821815  0.99028540    -0.13500
C1113       C  0.59768376  0.49320247  0.93857095     0.03200
C1114       C  0.57655570  0.47306116  0.91888925    -0.25600
H1115       H  0.50735750  0.40036841  0.94966427     0.08300
H1116       H  0.53638699  0.43141855  0.89221810     0.11900
H1117       H  0.54492683  0.44676895  0.07648690     0.11800
H1118       H  0.58216069  0.48647565  0.06237131     0.11500
H1119       H  0.61528352  0.51375944  0.00606594     0.12100
H1120       H  0.57547540  0.46892012  0.87910020     0.14000
C1121       C  0.62482416  0.46074242  0.78766507    -0.06000
C1122       C  0.60784403  0.44249642  0.81979589    -0.05900
C1123       C  0.58827250  0.42090691  0.80020993    -0.24100
C1124       C  0.58551238  0.41700263  0.74809651     0.18100
C1125       C  0.60372508  0.43421364  0.71576199     0.15400
C1126       C  0.62313526  0.45605338  0.73568073    -0.19100
C1127       C  0.60131036  0.43005945  0.66375123    -0.20900
C1128       C  0.58023341  0.41010553  0.64368650    -0.13500
C1129       C  0.56097825  0.39412147  0.67510943     0.03200
C1130       C  0.56413688  0.39716293  0.72757134    -0.25600
H1131       H  0.60853593  0.44577538  0.85987626     0.08300
H1132       H  0.57464562  0.40784566  0.82569808     0.11900
H1133       H  0.63607463  0.47002732  0.71055153     0.11800
H1134       H  0.61517379  0.44292178  0.63838210     0.11500
H1135       H  0.57815348  0.40838777  0.60324680     0.12100
H1136       H  0.54936612  0.38501041  0.75219045     0.14000
C1137       C  0.72915050  0.53252849  0.36803213    -0.06000
C1138       C  0.72705062  0.50978976  0.35899414    -0.05900
C1139       C  0.74546652  0.50547179  0.37405952    -0.24100
C1140       C  0.76622451  0.52376657  0.39874875     0.18100
C1141       C  0.76837760  0.54660832  0.40842372     0.15400
C1142       C  0.74992994  0.55087425  0.39279949    -0.19100
C1143       C  0.78907484  0.56492005  0.43314707    -0.20900
C1144       C  0.80809293  0.56113828  0.44565005    -0.13500
C1145       C  0.80660495  0.53888228  0.43425510     0.03200
C1146       C  0.78522529  0.51991903  0.41239073    -0.25600
H1147       H  0.71100259  0.49521665  0.34072817     0.08300
H1148       H  0.74346799  0.48783991  0.36641384     0.11900
H1149       H  0.75150220  0.56828539  0.40102551     0.11800
H1150       H  0.79091949  0.58244766  0.44127588     0.11500
H1151       H  0.82443508  0.57600662  0.46247512     0.12100
H1152       H  0.78404004  0.50279465  0.40293718     0.14000
C1153       C  0.64283591  0.59893823  0.32952966    -0.06000
C1154       C  0.65405012  0.62016879  0.35922369    -0.05900
C1155       C  0.64273455  0.63399642  0.36591282    -0.24100
C1156       C  0.62008137  0.62665573  0.34307740     0.18100
C1157       C  0.60966125  0.60606254  0.31093079     0.15400
C1158       C  0.62118887  0.59267283  0.30400395    -0.19100
C1159       C  0.58714312  0.59823632  0.28804923    -0.20900
C1160       C  0.57419791  0.60974155  0.29907720    -0.13500
C1161       C  0.58359957  0.62956708  0.33257949     0.03200
C1162       C  0.60704763  0.63863642  0.35325859    -0.25600
H1163       H  0.67079974  0.62531590  0.37916031     0.08300
H1164       H  0.65118258  0.64980536  0.39043912     0.11900
H1165       H  0.61261275  0.57650132  0.28036734     0.11800
H1166       H  0.57909067  0.58260730  0.26298228     0.11500
H1167       H  0.55643920  0.60278074  0.28193657     0.12100
H1168       H  0.61446465  0.65399629  0.37899226     0.14000
C1169       C  0.52959507  0.41860143  0.50819150    -0.06000
C1170       C  0.52676044  0.41333818  0.45640183    -0.05900
C1171       C  0.53979828  0.43160750  0.42129239    -0.24100
C1172       C  0.55618123  0.45541948  0.43737561     0.18100
C1173       C  0.55805626  0.46123732  0.48920823     0.15400
C1174       C  0.54440944  0.44283458  0.52429586    -0.19100
C1175       C  0.57501287  0.48491487  0.50534784    -0.20900
C1176       C  0.59162914  0.50180965  0.47129312    -0.13500
C1177       C  0.59103350  0.49548196  0.42049618     0.03200
C1178       C  0.57228106  0.47286153  0.40307513    -0.25600
H1179       H  0.51502617  0.39484232  0.44298066     0.08300
H1180       H  0.53801067  0.42683877  0.38178483     0.11900
H1181       H  0.54664162  0.44706493  0.56410543     0.11800
H1182       H  0.57665859  0.48977473  0.54478029     0.11500
H1183       H  0.60617671  0.51919670  0.48527384     0.12100
H1184       H  0.57212273  0.46777808  0.36409278     0.14000
C1185       C  0.68368425  0.56517032  0.49880361    -0.06000
C1186       C  0.66811689  0.57297758  0.51646992    -0.05900
C1187       C  0.66530291  0.57474941  0.56793174    -0.24100
C1188       C  0.67838342  0.56913284  0.60213659     0.18100
C1189       C  0.69538975  0.56287958  0.58439880     0.15400
C1190       C  0.69770222  0.56063056  0.53265905    -0.19100
C1191       C  0.70897465  0.55798651  0.61879370    -0.20900
C1192       C  0.70486540  0.55812230  0.67028623    -0.13500
C1193       C  0.68683827  0.56269240  0.68772890     0.03200
C1194       C  0.67402579  0.56870474  0.65367944    -0.25600
H1195       H  0.65704911  0.57627336  0.49050368     0.08300
H1196       H  0.65235860  0.57974859  0.58096849     0.11900
H1197       H  0.70973784  0.55461025  0.51871851     0.11800
H1198       H  0.72224622  0.55341124  0.60585238     0.11500
H1199       H  0.71485715  0.55343786  0.69634109     0.12100
H1200       H  0.66026907  0.57247110  0.66733141     0.14000
C1201       C  0.69225402  0.56954771  0.18781594    -0.06000
C1202       C  0.70860250  0.56242825  0.17156100    -0.05900
C1203       C  0.71381610  0.56285812  0.12052948    -0.24100
C1204       C  0.70293573  0.57070204  0.08539837     0.18100
C1205       C  0.68819915  0.57997359  0.10209288     0.15400
C1206       C  0.68281098  0.57917054  0.15329295    -0.19100
C1207       C  0.67779494  0.58834399  0.06696028    -0.20900
C1208       C  0.68013168  0.58549175  0.01561357    -0.13500
C1209       C  0.69270820  0.57407181  0.99903505     0.03200
C1210       C  0.70507641  0.56780010  0.03388264    -0.25600
H1211       H  0.71605235  0.55502540  0.19792521     0.08300
H1212       H  0.72539463  0.55598510  0.10836068     0.11900
H1213       H  0.67039123  0.58492977  0.16604870     0.11800
H1214       H  0.66676200  0.59583851  0.07917437     0.11500
H1215       H  0.67052076  0.59044036  0.98911017     0.12100
H1216       H  0.71503233  0.55921221  0.02100225     0.14000
C1217       C  0.62120798  0.46559229  0.26212181    -0.06000
C1218       C  0.62438929  0.46452828  0.21018708    -0.05900
C1219       C  0.60720131  0.44467345  0.18173407    -0.24100
C1220       C  0.58608845  0.42600718  0.20453193     0.18100
C1221       C  0.58332879  0.42635259  0.25722275     0.15400
C1222       C  0.60126924  0.44582133  0.28586797    -0.19100
C1223       C  0.56168273  0.40843191  0.27974540    -0.20900
C1224       C  0.54220997  0.39165325  0.25000097    -0.13500
C1225       C  0.54432206  0.39200295  0.19742672     0.03200
C1226       C  0.56677613  0.40835876  0.17508689    -0.25600
H1227       H  0.63957797  0.47967949  0.19124149     0.08300
H1228       H  0.60961896  0.44475711  0.14144561     0.11900
H1229       H  0.59842215  0.44679619  0.32576283     0.11800
H1230       H  0.55920847  0.40842872  0.32000761     0.11500
H1231       H  0.52498194  0.37926125  0.26786648     0.12100
H1232       H  0.56834081  0.40908129  0.13449394     0.14000
C1233       C  0.53811975  0.73293508  0.82232773    -0.06000
C1234       C  0.56059088  0.75453103  0.83064153    -0.05900
C1235       C  0.56384337  0.77737825  0.81816727    -0.24100
C1236       C  0.54481161  0.77917853  0.79621690     0.18100
C1237       C  0.52219904  0.75761490  0.78731824     0.15400
C1238       C  0.51891870  0.73473207  0.80082477    -0.19100
C1239       C  0.50322582  0.75929061  0.76491568    -0.20900
C1240       C  0.50627105  0.78205421  0.75298936    -0.13500
C1241       C  0.52841253  0.80379026  0.76275889     0.03200
C1242       C  0.54783987  0.80211516  0.78368658    -0.25600
H1243       H  0.57577849  0.75372918  0.84655182     0.08300
H1244       H  0.58134779  0.79364051  0.82529758     0.11900
H1245       H  0.50164235  0.71826333  0.79315046     0.11800
H1246       H  0.48580923  0.74297767  0.75743430     0.11500
H1247       H  0.49096290  0.78266814  0.73718867     0.12100
H1248       H  0.56494412  0.81864125  0.79210835     0.14000
C1249       C  0.53458726  0.72952457  0.32732181    -0.06000
C1250       C  0.55679262  0.75147383  0.33470274    -0.05900
C1251       C  0.55918147  0.77377271  0.32178058    -0.24100
C1252       C  0.53944985  0.77453168  0.30088215     0.18100
C1253       C  0.51690436  0.75263779  0.29396996     0.15400
C1254       C  0.51454994  0.73028511  0.30760641    -0.19100
C1255       C  0.49719710  0.75348230  0.27303942    -0.20900
C1256       C  0.49962223  0.77586409  0.26032218    -0.13500
C1257       C  0.52186368  0.79776910  0.26784508     0.03200
C1258       C  0.54184455  0.79687135  0.28736847    -0.25600
H1259       H  0.57255287  0.75135615  0.34939457     0.08300
H1260       H  0.57657257  0.79039363  0.32746401     0.11900
H1261       H  0.49745028  0.71345682  0.30093455     0.11800
H1262       H  0.47980089  0.73688153  0.26727305     0.11500
H1263       H  0.48389967  0.77607295  0.24570526     0.12100
H1264       H  0.55902279  0.81362894  0.29396356     0.14000
C1265       C  0.54956791  0.86864874  0.41085710    -0.06000
C1266       C  0.54624513  0.84808848  0.43697899    -0.05900
C1267       C  0.54924576  0.84890310  0.48911493    -0.24100
C1268       C  0.55468478  0.87003048  0.51607517     0.18100
C1269       C  0.55861267  0.89099215  0.48967646     0.15400
C1270       C  0.55660369  0.89033510  0.43710857    -0.19100
C1271       C  0.56295521  0.91175626  0.51646108    -0.20900
C1272       C  0.56196332  0.91129942  0.56878024    -0.13500
C1273       C  0.55723610  0.89032129  0.59540433     0.03200
C1274       C  0.55461425  0.87003945  0.56894234    -0.25600
H1275       H  0.54074707  0.83120748  0.41704719     0.08300
H1276       H  0.54613880  0.83265729  0.50854042     0.11900
H1277       H  0.55873037  0.90607231  0.41700422     0.11800
H1278       H  0.56595773  0.92794553  0.49693523     0.11500
H1279       H  0.56410805  0.92715886  0.58854841     0.12100
H1280       H  0.55062326  0.85369552  0.58923057     0.14000
C1281       C  0.55733463  0.87941695  0.90795729    -0.06000
C1282       C  0.56681550  0.90343346  0.92523916    -0.05900
C1283       C  0.56894426  0.90853510  0.97668105    -0.24100
C1284       C  0.56204843  0.88974269  0.01164628     0.18100
C1285       C  0.55430844  0.86583135  0.99455299     0.15400
C1286       C  0.55166021  0.86073927  0.94274148    -0.19100
C1287       C  0.54826514  0.84724415  0.02967897    -0.20900
C1288       C  0.54842746  0.85195826  0.08107495    -0.13500
C1289       C  0.55417543  0.87517639  0.09799983     0.03200
C1290       C  0.56163302  0.89418946  0.06322839    -0.25600
H1291       H  0.57113550  0.91802819  0.89896215     0.08300
H1292       H  0.57517598  0.92701121  0.98909888     0.11900
H1293       H  0.54444031  0.84218830  0.92952025     0.11800
H1294       H  0.54260107  0.82888655  0.01734379     0.11500
H1295       H  0.54258239  0.83707988  0.10740406     0.12100
H1296       H  0.56627580  0.91219723  0.07623407     0.14000
C1297       C  0.80165290  0.28108971  0.70252496    -0.06000
C1298       C  0.78126870  0.28405038  0.70095874    -0.05900
C1299       C  0.75793428  0.26461075  0.71208781    -0.24100
C1300       C  0.75447670  0.24180806  0.72541919     0.18100
C1301       C  0.77478947  0.23856503  0.72680162     0.15400
C1302       C  0.79815989  0.25811380  0.71505745    -0.19100
C1303       C  0.77142603  0.21584553  0.74028191    -0.20900
C1304       C  0.74815910  0.19640163  0.75140138    -0.13500
C1305       C  0.72767180  0.19918875  0.74944616     0.03200
C1306       C  0.73106502  0.22215234  0.73692034    -0.25600
H1307       H  0.78339625  0.30156454  0.69177790     0.08300
H1308       H  0.74262718  0.26749396  0.71074033     0.11900
H1309       H  0.81369355  0.25559365  0.71704551     0.11800
H1310       H  0.78676645  0.21301363  0.74169834     0.11500
H1311       H  0.74616473  0.17894603  0.76060791     0.12100
H1312       H  0.71546564  0.22455341  0.73467446     0.14000
C1313       C  0.61638655  0.04918126  0.78360966    -0.06000
C1314       C  0.59196796  0.03641845  0.79971898    -0.05900
C1315       C  0.57840497  0.01107342  0.79911192    -0.24100
C1316       C  0.58879547  0.99771154  0.78197114     0.18100
C1317       C  0.61340696  0.00995682  0.76641364     0.15400
C1318       C  0.62723812  0.03577848  0.76768775    -0.19100
C1319       C  0.62337468  0.99603861  0.74904846    -0.20900
C1320       C  0.60887979  0.97044184  0.74582518    -0.13500
C1321       C  0.58420191  0.95834967  0.76001803     0.03200
C1322       C  0.57457674  0.97224806  0.77908025    -0.25600
H1323       H  0.58314790  0.04608521  0.81284894     0.08300
H1324       H  0.55958525  0.00191359  0.81137123     0.11900
H1325       H  0.64603349  0.04533953  0.75526184     0.11800
H1326       H  0.64220461  0.00495878  0.73701094     0.11500
H1327       H  0.61676554  0.96019630  0.73095712     0.12100
H1328       H  0.55565112  0.96326350  0.79065468     0.14000
C1329       C  0.72095478  0.19596407  0.26483168    -0.06000
C1330       C  0.72140969  0.21758813  0.27787709    -0.05900
C1331       C  0.74172966  0.24040058  0.26734177    -0.24100
C1332       C  0.76203282  0.24214925  0.24309867     0.18100
C1333       C  0.76229133  0.22065376  0.23133592     0.15400
C1334       C  0.74180073  0.19766373  0.24257621    -0.19100
C1335       C  0.78282746  0.22259046  0.20746822    -0.20900
C1336       C  0.80281138  0.24553488  0.19532785    -0.13500
C1337       C  0.80249707  0.26697304  0.20602285     0.03200
C1338       C  0.78196710  0.26505779  0.23007257    -0.25600
H1339       H  0.70564671  0.21686375  0.29490439     0.08300
H1340       H  0.74129664  0.25668967  0.27702313     0.11900
H1341       H  0.74162143  0.18117922  0.23172176     0.11800
H1342       H  0.78345054  0.20636461  0.19822467     0.11500
H1343       H  0.81852079  0.24652516  0.17742266     0.12100
H1344       H  0.78168160  0.28145357  0.23957126     0.14000
C1345       C  0.61445371  0.04343360  0.25539712    -0.06000
C1346       C  0.59201596  0.03268517  0.22978958    -0.05900
C1347       C  0.57845653  0.00766426  0.22156783    -0.24100
C1348       C  0.58697333  0.99270223  0.23879213     0.18100
C1349       C  0.60989935  0.00308659  0.26291225     0.15400
C1350       C  0.62370223  0.02859342  0.27087837    -0.19100
C1351       C  0.61811771  0.98759454  0.27957422    -0.20900
C1352       C  0.60349763  0.96215980  0.27337926    -0.13500
C1353       C  0.58038069  0.95187510  0.25086198     0.03200
C1354       C  0.57251657  0.96741190  0.23304533    -0.25600
H1355       H  0.58459910  0.04366312  0.21683888     0.08300
H1356       H  0.56100755  0.99995203  0.20262386     0.11900
H1357       H  0.64095482  0.03666708  0.29068629     0.11800
H1358       H  0.63565018  0.99510112  0.29801675     0.11500
H1359       H  0.60995635  0.95053121  0.28730807     0.12100
H1360       H  0.55486229  0.95976526  0.21492638     0.14000
C1361       C  0.67432654  0.12674880  0.92581708    -0.06000
C1362       C  0.69420927  0.14871343  0.94334202    -0.05900
C1363       C  0.69862758  0.15283935  0.99498029    -0.24100
C1364       C  0.68341963  0.13486855  0.02954405     0.18100
C1365       C  0.66455702  0.11200179  0.01169818     0.15400
C1366       C  0.66001568  0.10820051  0.96004276    -0.19100
C1367       C  0.64977642  0.09370248  0.04588693    -0.20900
C1368       C  0.65281425  0.09838798  0.09737523    -0.13500
C1369       C  0.67032246  0.12154384  0.11537965     0.03200
C1370       C  0.68594981  0.13964585  0.08146523    -0.25600
H1371       H  0.70535614  0.16321618  0.91731694     0.08300
H1372       H  0.71335957  0.17035625  0.00790703     0.11900
H1373       H  0.64474664  0.09114397  0.94646908     0.11800
H1374       H  0.63536822  0.07603730  0.03279095     0.11500
H1375       H  0.64049360  0.08434986  0.12312924     0.12100
H1376       H  0.69949473  0.15753499  0.09542316     0.14000
C1377       C  0.67739373  0.12699677  0.61249336    -0.06000
C1378       C  0.69708278  0.14615490  0.58691383    -0.05900
C1379       C  0.69909232  0.14524189  0.53474521    -0.24100
C1380       C  0.68089429  0.12554191  0.50721954     0.18100
C1381       C  0.66157057  0.10571814  0.53319055     0.15400
C1382       C  0.66026112  0.10633255  0.58577963    -0.19100
C1383       C  0.64289071  0.08642340  0.50599021    -0.20900
C1384       C  0.64239252  0.08750240  0.45379077    -0.13500
C1385       C  0.66076433  0.10766420  0.42756001     0.03200
C1386       C  0.68064128  0.12615226  0.45433125    -0.25600
H1387       H  0.71038277  0.16228156  0.60721049     0.08300
H1388       H  0.71406816  0.16057632  0.51573164     0.11900
H1389       H  0.64481165  0.09175527  0.60544004     0.11800
H1390       H  0.62798730  0.07108222  0.52516111     0.11500
H1391       H  0.62699688  0.07290861  0.43389807     0.12100
H1392       H  0.69476009  0.14185013  0.43446228     0.14000
C1393       C  0.47825754  0.27897990  0.59240387    -0.06000
C1394       C  0.49969232  0.27822083  0.59956700    -0.05900
C1395       C  0.50089251  0.25778372  0.58510267    -0.24100
C1396       C  0.48068129  0.23757920  0.56304673     0.18100
C1397       C  0.45871982  0.23762094  0.55703983     0.15400
C1398       C  0.45760045  0.25829265  0.57189500    -0.19100
C1399       C  0.43843523  0.21711071  0.53557618    -0.20900
C1400       C  0.43985135  0.19672825  0.52074255    -0.13500
C1401       C  0.46171337  0.19665206  0.52608476     0.03200
C1402       C  0.48211528  0.21732656  0.54705800    -0.25600
H1403       H  0.51589989  0.29382350  0.61496309     0.08300
H1404       H  0.51782480  0.25797978  0.59033572     0.11900
H1405       H  0.44101035  0.25863919  0.56556502     0.11800
H1406       H  0.42140021  0.21673505  0.53069107     0.11500
H1407       H  0.42381358  0.18096415  0.50529265     0.12100
H1408       H  0.49898139  0.21738639  0.55242898     0.14000
C1409       C  0.61198628  0.16346934  0.34960577    -0.06000
C1410       C  0.61332866  0.16477261  0.40227483    -0.05900
C1411       C  0.59743068  0.16926705  0.43000584    -0.24100
C1412       C  0.57932726  0.17170535  0.40557697     0.18100
C1413       C  0.57857255  0.17163743  0.35247725     0.15400
C1414       C  0.59538378  0.16819941  0.32476478    -0.19100
C1415       C  0.55961295  0.17267869  0.32817356    -0.20900
C1416       C  0.54044464  0.17150784  0.35604234    -0.13500
C1417       C  0.54036823  0.17023780  0.40872777     0.03200
C1418       C  0.56063117  0.17179602  0.43332439    -0.25600
H1419       H  0.62587494  0.16102913  0.42210456     0.08300
H1420       H  0.59822139  0.16915139  0.47065031     0.11900
H1421       H  0.59384690  0.16665659  0.28418938     0.11800
H1422       H  0.55865716  0.17255936  0.28753812     0.11500
H1423       H  0.52489729  0.17002177  0.33631360     0.12100
H1424       H  0.56045532  0.17015165  0.47387148     0.14000
C1425       C  0.58161803  0.11248090  0.68726232    -0.06000
C1426       C  0.56001798  0.10634551  0.71301200    -0.05900
C1427       C  0.53992385  0.10387926  0.68710275    -0.24100
C1428       C  0.54120576  0.10753972  0.63515360     0.18100
C1429       C  0.56206895  0.11153809  0.60837051     0.15400
C1430       C  0.58212006  0.11381358  0.63463247    -0.19100
C1431       C  0.56317995  0.11493179  0.55625046    -0.20900
C1432       C  0.54466400  0.11634003  0.53157849    -0.13500
C1433       C  0.52496561  0.11446428  0.55885501     0.03200
C1434       C  0.52274758  0.10898412  0.61014579    -0.25600
H1435       H  0.55914054  0.10497585  0.75357529     0.08300
H1436       H  0.52391859  0.10044769  0.70801906     0.11900
H1437       H  0.59859875  0.11813834  0.61444617     0.11800
H1438       H  0.57890597  0.11775883  0.53506527     0.11500
H1439       H  0.54653297  0.12047061  0.49182542     0.12100
H1440       H  0.50732057  0.10717955  0.63102197     0.14000
C1441       C  0.46608726  0.20596746  0.01792189    -0.06000
C1442       C  0.44503778  0.20633338  0.00393504    -0.05900
C1443       C  0.44169990  0.22543985  0.01908468    -0.24100
C1444       C  0.45916023  0.24437128  0.04934159     0.18100
C1445       C  0.48065882  0.24449865  0.06274495     0.15400
C1446       C  0.48413286  0.22547691  0.04643156    -0.19100
C1447       C  0.49808504  0.26340323  0.09310415    -0.20900
C1448       C  0.49451926  0.28225861  0.10912673    -0.13500
C1449       C  0.47333153  0.28248394  0.09566264     0.03200
C1450       C  0.45554221  0.26322048  0.06618766    -0.25600
H1451       H  0.43074921  0.19136536  0.98254487     0.08300
H1452       H  0.42515610  0.22506889  0.00821806     0.11900
H1453       H  0.50018184  0.22512766  0.05842575     0.11800
H1454       H  0.51465204  0.26380203  0.10388240     0.11500
H1455       H  0.50866691  0.29704747  0.13111354     0.12100
H1456       H  0.43938006  0.26343378  0.05452631     0.14000
C1457       C  0.61302791  0.17113570  0.83297084    -0.06000
C1458       C  0.59694844  0.17303968  0.79968094    -0.05900
C1459       C  0.57682338  0.17400103  0.81770215    -0.24100
C1460       C  0.57254576  0.17349814  0.86949978     0.18100
C1461       C  0.58984678  0.17396224  0.90338064     0.15400
C1462       C  0.60981821  0.17251550  0.88497416    -0.19100
C1463       C  0.58601468  0.17428485  0.95517486    -0.20900
C1464       C  0.56452459  0.17242390  0.97324254    -0.13500
C1465       C  0.54615419  0.16972329  0.94003061     0.03200
C1466       C  0.55064003  0.17103601  0.88797147    -0.25600
H1467       H  0.59875155  0.17173290  0.75951187     0.08300
H1468       H  0.56397602  0.17395279  0.79104093     0.11900
H1469       H  0.62200989  0.17100843  0.91108320     0.11800
H1470       H  0.59915293  0.17489612  0.98180192     0.11500
H1471       H  0.56148621  0.17122672  0.01342265     0.12100
H1472       H  0.53664026  0.16896703  0.86194365     0.14000
C1473       C  0.58002752  0.10745682  0.17906611    -0.06000
C1474       C  0.58182641  0.10451554  0.12729322    -0.05900
C1475       C  0.56383377  0.10256507  0.09463870    -0.24100
C1476       C  0.54435142  0.10444996  0.11334272     0.18100
C1477       C  0.54169170  0.10586870  0.16581707     0.15400
C1478       C  0.55921035  0.10660095  0.19847991    -0.19100
C1479       C  0.52285874  0.10883426  0.18446656    -0.20900
C1480       C  0.50825245  0.11268497  0.15137855    -0.13500
C1481       C  0.51181206  0.11283097  0.09930269     0.03200
C1482       C  0.52888188  0.10724037  0.08039537    -0.25600
H1483       H  0.59769362  0.10481014  0.11195354     0.08300
H1484       H  0.56605070  0.10130454  0.05460004     0.11900
H1485       H  0.55788073  0.10899092  0.23847530     0.11800
H1486       H  0.52049554  0.10982966  0.22453542     0.11500
H1487       H  0.49488039  0.11663119  0.16651669     0.12100
H1488       H  0.53173058  0.10743300  0.04020571     0.14000
C1489       C  0.44489636  0.12271597  0.65710832    -0.06000
C1490       C  0.43682204  0.09922049  0.67553384    -0.05900
C1491       C  0.43378461  0.09463728  0.72708556    -0.24100
C1492       C  0.43824858  0.11338403  0.76091288     0.18100
C1493       C  0.44487903  0.13674463  0.74245762     0.15400
C1494       C  0.44856615  0.14138336  0.69063102    -0.19100
C1495       C  0.44847264  0.15520720  0.77638056    -0.20900
C1496       C  0.44684917  0.15095436  0.82818217    -0.13500
C1497       C  0.44205094  0.12835234  0.84675734     0.03200
C1498       C  0.43714882  0.10943434  0.81291277    -0.25600
H1499       H  0.43393965  0.08466347  0.65015467     0.08300
H1500       H  0.42846561  0.07657568  0.74056948     0.11900
H1501       H  0.45457797  0.15950381  0.67639973     0.11800
H1502       H  0.45328236  0.17313667  0.76293218     0.11500
H1503       H  0.45084408  0.16578830  0.85377628     0.12100
H1504       H  0.43332948  0.09191310  0.82715274     0.14000
C1505       C  0.43988736  0.13851948  0.16075491    -0.06000
C1506       C  0.44828799  0.16037286  0.18780093    -0.05900
C1507       C  0.44605290  0.16017690  0.23996471    -0.24100
C1508       C  0.43597843  0.13814055  0.26621567     0.18100
C1509       C  0.42641455  0.11591971  0.23914659     0.15400
C1510       C  0.42792121  0.11621524  0.18639097    -0.19100
C1511       C  0.41736157  0.09398612  0.26549843    -0.20900
C1512       C  0.41961559  0.09427894  0.31771675    -0.13500
C1513       C  0.43012026  0.11635996  0.34457301     0.03200
C1514       C  0.43721270  0.13813723  0.31894542    -0.25600
H1515       H  0.45752808  0.17776660  0.16861785     0.08300
H1516       H  0.45347428  0.17736818  0.25993978     0.11900
H1517       H  0.42176740  0.09934526  0.16581913     0.11800
H1518       H  0.41003216  0.07679895  0.24555522     0.11500
H1519       H  0.41439722  0.07737631  0.33702752     0.12100
H1520       H  0.44594461  0.15526309  0.33949622     0.14000
C1521       C  0.20043350  0.73491954  0.92051798    -0.06000
C1522       C  0.20044424  0.75579832  0.90389567    -0.05900
C1523       C  0.21908422  0.77909008  0.91841764    -0.24100
C1524       C  0.23761237  0.78180920  0.95099809     0.18100
C1525       C  0.23764098  0.76082430  0.96789402     0.15400
C1526       C  0.21932152  0.73760785  0.95191671    -0.19100
C1527       C  0.25582291  0.76335250  0.00104352    -0.20900
C1528       C  0.27432124  0.78648798  0.01604289    -0.13500
C1529       C  0.27495760  0.80756832  0.99846521     0.03200
C1530       C  0.25622805  0.80508546  0.96660985    -0.25600
H1531       H  0.18578220  0.75403659  0.88036234     0.08300
H1532       H  0.21872448  0.79492726  0.90504691     0.11900
H1533       H  0.21905699  0.72154247  0.96603798     0.11800
H1534       H  0.25599910  0.74745119  0.01466037     0.11500
H1535       H  0.28864168  0.78794023  0.04027313     0.12100
H1536       H  0.25677337  0.82122024  0.95211169     0.14000
C1537       C  0.41266109  0.05305178  0.00379816    -0.06000
C1538       C  0.38976269  0.04312337  0.02708161    -0.05900
C1539       C  0.37484621  0.01773062  0.03338294    -0.24100
C1540       C  0.38245352  0.00183218  0.01590709     0.18100
C1541       C  0.40518793  0.01183927  0.99122367     0.15400
C1542       C  0.42003704  0.03714632  0.98562708    -0.19100
C1543       C  0.41307627  0.99646357  0.97310796    -0.20900
C1544       C  0.39912544  0.97144511  0.98095083    -0.13500
C1545       C  0.37688230  0.96104042  0.00705476     0.03200
C1546       C  0.36822619  0.97628800  0.02350854    -0.25600
H1547       H  0.38367290  0.05501756  0.04142390     0.08300
H1548       H  0.35750844  0.01056618  0.05234972     0.11900
H1549       H  0.43752438  0.04451460  0.96706250     0.11800
H1550       H  0.43034606  0.00384337  0.95371205     0.11500
H1551       H  0.40609283  0.96014558  0.96736007     0.12100
H1552       H  0.35116816  0.96850837  0.04383054     0.14000
C1553       C  0.38014885  0.84184366  0.10476757    -0.06000
C1554       C  0.37833914  0.84137248  0.15741644    -0.05900
C1555       C  0.39377832  0.83702527  0.18714006    -0.24100
C1556       C  0.41184644  0.83384741  0.16473361     0.18100
C1557       C  0.41280403  0.83274522  0.11174319     0.15400
C1558       C  0.39649202  0.83609616  0.08209599    -0.19100
C1559       C  0.43155358  0.83070806  0.08926307    -0.20900
C1560       C  0.45047155  0.83224958  0.11858306    -0.13500
C1561       C  0.45052022  0.83496211  0.17097217     0.03200
C1562       C  0.43036363  0.83421719  0.19412044    -0.25600
H1563       H  0.36585134  0.84571568  0.17566266     0.08300
H1564       H  0.39271255  0.83788318  0.22764325     0.11900
H1565       H  0.39829026  0.83679717  0.04155067     0.11800
H1566       H  0.43259051  0.82980068  0.04876686     0.11500
H1567       H  0.46589710  0.83289810  0.10005327     0.12100
H1568       H  0.43051980  0.83681305  0.23442377     0.14000
C1569       C  0.48411848  0.89650381  0.85290449    -0.06000
C1570       C  0.48762812  0.89585991  0.90485319    -0.05900
C1571       C  0.47293268  0.89909951  0.93897083    -0.24100
C1572       C  0.45412288  0.90239148  0.92151899     0.18100
C1573       C  0.45146615  0.90450907  0.86926737     0.15400
C1574       C  0.46687362  0.90211708  0.83534642    -0.19100
C1575       C  0.43216514  0.90691002  0.85156166    -0.20900
C1576       C  0.41441710  0.90495211  0.88479237    -0.13500
C1577       C  0.41608468  0.90123693  0.93626429     0.03200
C1578       C  0.43667812  0.90141409  0.95494617    -0.25600
H1579       H  0.50112266  0.89187599  0.91904209     0.08300
H1580       H  0.47533701  0.89756805  0.97880672     0.11900
H1581       H  0.46402284  0.90251204  0.79528567     0.11800
H1582       H  0.42990559  0.90864810  0.81174068     0.11500
H1583       H  0.39862232  0.90497553  0.86993496     0.12100
H1584       H  0.43781046  0.89824906  0.99458470     0.14000
C1585       C  0.26846528  0.80390704  0.49223346    -0.06000
C1586       C  0.24709246  0.80288417  0.50911865    -0.05900
C1587       C  0.22413705  0.78321088  0.49631136    -0.24100
C1588       C  0.22211372  0.76437488  0.46558939     0.18100
C1589       C  0.24352505  0.76513411  0.44878198     0.15400
C1590       C  0.26653436  0.78472390  0.46268023    -0.19100
C1591       C  0.24156813  0.74639711  0.41790772    -0.20900
C1592       C  0.21867569  0.72670946  0.40514470    -0.13500
C1593       C  0.19726746  0.72547669  0.42244634     0.03200
C1594       C  0.19909416  0.74464928  0.45193596    -0.25600
H1595       H  0.24816865  0.81762778  0.53146588     0.08300
H1596       H  0.20798137  0.78295149  0.50970398     0.11900
H1597       H  0.28289740  0.78561036  0.44855853     0.11800
H1598       H  0.25774237  0.74671570  0.40443809     0.11500
H1599       H  0.21768504  0.71201601  0.38275097     0.12100
H1600       H  0.18269923  0.74361284  0.46629650     0.14000
C1601       C  0.36797617  0.95548496  0.51971362    -0.06000
C1602       C  0.35302731  0.96561489  0.52550479    -0.05900
C1603       C  0.36281564  0.99090727  0.52052544    -0.24100
C1604       C  0.38768494  0.00642846  0.50958706     0.18100
C1605       C  0.40254014  0.99609040  0.50350468     0.15400
C1606       C  0.39269302  0.97099287  0.50849421    -0.19100
C1607       C  0.42722141  0.01092465  0.49259921    -0.20900
C1608       C  0.43737278  0.03589434  0.48790857    -0.13500
C1609       C  0.42317693  0.04689195  0.49384152     0.03200
C1610       C  0.39811714  0.03196352  0.50463616    -0.25600
H1611       H  0.33385446  0.95403311  0.53407118     0.08300
H1612       H  0.35098421  0.99830185  0.52532116     0.11900
H1613       H  0.40449483  0.96354342  0.50359012     0.11800
H1614       H  0.43879014  0.00321245  0.48776260     0.11500
H1615       H  0.45664174  0.04661318  0.47941671     0.12100
H1616       H  0.38692292  0.04009803  0.50926433     0.14000
C1617       C  0.38578552  0.84048285  0.57313973    -0.06000
C1618       C  0.40235955  0.83874152  0.54110080    -0.05900
C1619       C  0.42252602  0.83821970  0.56069249    -0.24100
C1620       C  0.42637417  0.83907594  0.61283406     0.18100
C1621       C  0.40871595  0.83871699  0.64542037     0.15400
C1622       C  0.38872117  0.83965153  0.62545125    -0.19100
C1623       C  0.41211290  0.83889462  0.69752446    -0.20900
C1624       C  0.43338548  0.84083656  0.71721602    -0.13500
C1625       C  0.45200796  0.84314628  0.68538825     0.03200
C1626       C  0.44811041  0.84166765  0.63296685    -0.25600
H1627       H  0.40082577  0.83975067  0.50077786     0.08300
H1628       H  0.43569063  0.83825260  0.53497388     0.11900
H1629       H  0.37619291  0.84112817  0.65064439     0.11800
H1630       H  0.39873095  0.83849458  0.72314124     0.11500
H1631       H  0.43604498  0.84233689  0.75754557     0.12100
H1632       H  0.46238143  0.84358776  0.60796392     0.14000
C1633       C  0.32544293  0.88209233  0.85907678    -0.06000
C1634       C  0.33865652  0.90609065  0.84113427    -0.05900
C1635       C  0.34062299  0.91061531  0.78969891    -0.24100
C1636       C  0.32902047  0.89120047  0.75562531     0.18100
C1637       C  0.31421619  0.86708975  0.77351845     0.15400
C1638       C  0.31275884  0.86264315  0.82529337    -0.19100
C1639       C  0.30195878  0.84781838  0.73917978    -0.20900
C1640       C  0.30543705  0.85226057  0.68762614    -0.13500
C1641       C  0.32151525  0.87590072  0.67006900     0.03200
C1642       C  0.33279261  0.89539000  0.70401519    -0.25600
H1643       H  0.34853460  0.92125774  0.86685258     0.08300
H1644       H  0.35178477  0.92919948  0.77655561     0.11900
H1645       H  0.30231102  0.84411644  0.83925624     0.11800
H1646       H  0.29030959  0.82928349  0.75218517     0.11500
H1647       H  0.29663617  0.83707256  0.66157978     0.12100
H1648       H  0.34501387  0.91368256  0.69022136     0.14000
C1649       C  0.32089030  0.88434202  0.35954100    -0.06000
C1650       C  0.33881910  0.90805070  0.34567790    -0.05900
C1651       C  0.34288093  0.91458159  0.29513220    -0.24100
C1652       C  0.32875625  0.89755388  0.25796692     0.18100
C1653       C  0.30935728  0.87425028  0.27200869     0.15400
C1654       C  0.30574390  0.86766516  0.32283007    -0.19100
C1655       C  0.29479066  0.85751336  0.23480483    -0.20900
C1656       C  0.30044934  0.86316191  0.18416474    -0.13500
C1657       C  0.32093652  0.88544937  0.17016464     0.03200
C1658       C  0.33453475  0.90292944  0.20710179    -0.25600
H1659       H  0.35074437  0.92099945  0.37378497     0.08300
H1660       H  0.35765647  0.93258018  0.28505299     0.11900
H1661       H  0.29187376  0.84935974  0.33372232     0.11800
H1662       H  0.27965665  0.83971755  0.24487737     0.11500
H1663       H  0.28973696  0.84947396  0.15608996     0.12100
H1664       H  0.35020109  0.92026849  0.19634579     0.14000
C1665       C  0.41009074  0.89800683  0.41782275    -0.06000
C1666       C  0.40718681  0.89898437  0.36569510    -0.05900
C1667       C  0.42485406  0.90054340  0.33256027    -0.24100
C1668       C  0.44535655  0.90049973  0.35111651     0.18100
C1669       C  0.44916830  0.90121369  0.40366410     0.15400
C1670       C  0.43178376  0.90060275  0.43669709    -0.19100
C1671       C  0.46915182  0.90027433  0.42238108    -0.20900
C1672       C  0.48394773  0.89648550  0.38969008    -0.13500
C1673       C  0.47936159  0.89420389  0.33774741     0.03200
C1674       C  0.46088900  0.89758004  0.31832165    -0.25600
H1675       H  0.39058972  0.89717644  0.35050075     0.08300
H1676       H  0.42167403  0.90011822  0.29249089     0.11900
H1677       H  0.43398354  0.89958991  0.47684623     0.11800
H1678       H  0.47241245  0.90089743  0.46245036     0.11500
H1679       H  0.49832592  0.89417209  0.40522607     0.12100
H1680       H  0.45717830  0.89562037  0.27829770     0.14000
loop_ 
_geom_bond_atom_site_label_1 
_geom_bond_atom_site_label_2 
_geom_bond_distance 
_geom_bond_site_symmetry_2 
_ccdc_geom_bond_type 
O1           C16   1.257       .  A
O1           Al9   1.875       .  S
C2           O12   1.261       .  A
C2            O3   1.268       .  A
C2         C1641   1.463       .  S
O3           Al5   1.926       .  S
O4            C6   1.258       .  A
O4           Al5   1.894       .  S
Al5          O13   1.879       .  S
Al5          O15   1.936       .  S
Al5          O14   1.768       .  S
C6           O19   1.272       .  A
C6         C1617   1.492       .  S
O7           C17   1.267       .  A
O7           Al9   1.908       .  S
O8           C21   1.261       .  A
O8          Al18   1.891       .  S
Al9          O22   1.934       .  S
Al9          O19   1.966       .  S
Al9          O14   1.776       .  S
O10          C17   1.265       .  A
O10         Al18   1.917       .  S
O11          C20   1.263       .  A
O11         Al18   1.938       .  S
O12         Al18   1.887       .  S
O13          C20   1.258       .  A
O14         Al18   1.778       .  S
O15          C16   1.267       .  A
C16        C1665   1.470       .  S
C17        C1585   1.478       .  S
C20        C1601   1.483       .  S
C21          O22   1.267       .  A
C21        C1649   1.463       .  S
O23          C38   1.257       .  A
O23         Al31   1.865       .  S
C24          O34   1.261       .  A
C24          O25   1.268       .  A
C24        C1657   1.470       .  S
O25         Al27   1.927       .  S
O26          C28   1.258       .  A
O26         Al27   1.890       .  S
Al27         O35   1.862       .  S
Al27         O37   1.946       .  S
Al27         O36   1.765       .  S
C28          O41   1.267       .  A
C28        C1553   1.481       .  S
O29          C39   1.261       .  A
O29         Al31   1.877   1_554  S
O30          C43   1.260       .  A
O30         Al40   1.884   1_556  S
Al31         O44   1.936       .  S
Al31         O41   1.950   1_556  S
Al31         O36   1.767   1_556  S
O32          C39   1.274       .  A
O32         Al40   1.962       .  S
O33          C42   1.271       .  A
O33         Al40   1.970       .  S
O34         Al40   1.885       .  S
O35          C42   1.256       .  A
O36         Al40   1.776       .  S
O37          C38   1.269   1_554  A
C38        C1577   1.465       .  S
C39        C1529   1.478   1_554  S
C42        C1545   1.485       .  S
C43          O44   1.266       .  A
C43        C1633   1.465       .  S
O45          C60   1.260       .  A
O45         Al53   1.879       .  S
C46          O56   1.264       .  A
C46          O47   1.263       .  A
C46        C1497   1.474       .  S
O47         Al49   1.910       .  S
O48          C50   1.258       .  A
O48         Al49   1.908       .  S
Al49         O57   1.881       .  S
Al49         O59   1.924   1_556  S
Al49         O58   1.782   1_556  S
C50          O63   1.265   1_556  A
C50        C1465   1.490       .  S
O51          C61   1.269       .  A
O51         Al53   1.908       .  S
O52          C65   1.265       .  A
O52         Al62   1.924       .  S
Al53         O66   1.911       .  S
Al53         O63   1.941       .  S
Al53         O58   1.783       .  S
O54          C61   1.268       .  A
O54         Al62   1.924       .  S
O55          C64   1.264       .  A
O55         Al62   1.938   1_556  S
O56         Al62   1.908   1_556  S
O57          C64   1.257       .  A
O58         Al62   1.780       .  S
O59          C60   1.267       .  A
C60        C1481   1.467       .  S
C61        C1441   1.481       .  S
C64        C1537   1.486   1_556  S
C65          O66   1.261       .  A
C65        C1505   1.476       .  S
O67          C82   1.261       .  A
O67         Al75   1.890       .  S
C68          O78   1.263       .  A
C68          O69   1.259       .  A
C68        C1513   1.469       .  S
O69         Al71   1.901       .  S
O70          C72   1.260       .  A
O70         Al71   1.892       .  S
Al71         O79   1.852       .  S
Al71         O81   1.921       .  S
Al71         O80   1.770       .  S
C72          O85   1.270       .  A
C72        C1417   1.481       .  S
O73          C83   1.265       .  A
O73         Al75   1.888       .  S
O74          C87   1.261       .  A
O74         Al84   1.902       .  S
Al75         O88   1.930       .  S
Al75         O85   1.955       .  S
Al75         O80   1.776       .  S
O76          C83   1.274       .  A
O76         Al84   1.955       .  S
O77          C86   1.273       .  A
O77         Al84   1.970       .  S
O78         Al84   1.919       .  S
O79          C86   1.256       .  A
O80         Al84   1.776       .  S
O81          C82   1.262       .  A
C82        C1433   1.464       .  S
C83        C1401   1.488       .  S
C86        C1609   1.487       .  S
C87          O88   1.264       .  A
C87        C1489   1.474       .  S
O89         C104   1.258       .  A
O89         Al97   1.886       .  S
C90         O100   1.267       .  A
C90          O91   1.263       .  A
C90        C1385   1.478       .  S
O91         Al93   1.903       .  S
O92          C94   1.261       .  A
O92         Al93   1.890       .  S
Al93        O101   1.866       .  S
Al93        O103   1.922       .  S
Al93        O102   1.765       .  S
C94         O107   1.269       .  A
C94        C1409   1.479       .  S
O95         C105   1.262       .  A
O95         Al97   1.884       .  S
O96         C109   1.260       .  A
O96        Al106   1.895       .  S
Al97        O110   1.932       .  S
Al97        O107   1.954       .  S
Al97        O102   1.772       .  S
O98         C105   1.273       .  A
O98        Al106   1.961       .  S
O99         C108   1.271       .  A
O99        Al106   1.963       .  S
O100       Al106   1.923       .  S
O101        C108   1.258       .  A
O102       Al106   1.777       .  S
O103        C104   1.263       .  A
C104       C1473   1.464       .  S
C105       C1329   1.487       .  S
C108       C1345   1.482       .  S
C109        O110   1.264       .  A
C109       C1369   1.469       .  S
O111        C126   1.263       .  A
O111       Al119   1.892       .  S
C112        O122   1.261       .  A
C112        O113   1.262       .  A
C112       C1361   1.470       .  S
O113       Al115   1.905       .  S
O114        C116   1.259       .  A
O114       Al115   1.904       .  S
Al115       O123   1.870       .  S
Al115       O125   1.914       .  S
Al115       O124   1.775       .  S
C116        O129   1.266       .  A
C116       C1457   1.491       .  S
O117        C127   1.270       .  A
O117       Al119   1.911       .  S
O118        C131   1.263       .  A
O118       Al128   1.915       .  S
Al119       O132   1.919       .  S
Al119       O129   1.947       .  S
Al119       O124   1.783       .  S
O120        C127   1.270       .  A
O120       Al128   1.927       .  S
O121        C130   1.266       .  A
O121       Al128   1.949       .  S
O122       Al128   1.905       .  S
O123        C130   1.256       .  A
O124       Al128   1.780       .  S
O125        C126   1.265       .  A
C126       C1425   1.470       .  S
C127       C1305   1.486       .  S
C130       C1313   1.487       .  S
C131        O132   1.262       .  A
C131       C1377   1.470       .  S
O133        C148   1.259       .  A
O133       Al141   1.871       .  S
C134        O144   1.262       .  A
C134        O135   1.265       .  A
C134       C1289   1.474       .  S
O135       Al137   1.924       .  S
O136        C138   1.256       .  A
O136       Al137   1.889       .  S
Al137       O145   1.868       .  S
Al137       O147   1.945       .  S
Al137       O146   1.770       .  S
C138        O151   1.265       .  A
C138       C1561   1.478       .  S
O139        C149   1.264       .  A
O139       Al141   1.890       .  S
O140        C153   1.263       .  A
O140       Al150   1.909       .  S
Al141       O154   1.929       .  S
Al141       O151   1.949       .  S
Al141       O146   1.775       .  S
O142        C149   1.271       .  A
O142       Al150   1.938       .  S
O143        C152   1.267       .  A
O143       Al150   1.949       .  S
O144       Al150   1.901       .  S
O145        C152   1.257       .  A
O146       Al150   1.774       .  S
O147        C148   1.270       .  A
C148       C1673   1.469       .  S
C149       C1257   1.478       .  S
C152       C1353   1.482       .  S
C153        O154   1.264       .  A
C153       C1265   1.470       .  S
O155        C170   1.257       .  A
O155       Al163   1.879       .  S
C156        O166   1.269       .  A
C156        O157   1.266       .  A
C156       C1273   1.476       .  S
O157       Al159   1.912       .  S
O158        C160   1.260       .  A
O158       Al159   1.904       .  S
Al159       O167   1.877       .  S
Al159       O169   1.928       .  S
Al159       O168   1.770       .  S
C160        O173   1.271       .  A
C160       C1625   1.491       .  S
O161        C171   1.265       .  A
O161       Al163   1.899       .  S
O162        C175   1.263       .  A
O162       Al172   1.901       .  S
Al163       O176   1.939       .  S
Al163       O173   1.958       .  S
Al163       O168   1.772       .  S
O164        C171   1.273       .  A
O164       Al172   1.965       .  S
O165        C174   1.269       .  A
O165       Al172   1.961       .  S
O166       Al172   1.918       .  S
O167        C174   1.258       .  A
O168       Al172   1.779       .  S
O169        C170   1.265       .  A
C170       C1569   1.469       .  S
C171       C1241   1.496       .  S
C174       C1321   1.488       .  S
C175        O176   1.267       .  A
C175       C1281   1.475       .  S
O177        C192   1.256       .  A
O177       Al185   1.866       .  S
C178        O188   1.261       .  A
C178        O179   1.267       .  A
C178       C1201   1.466       .  S
O179       Al181   1.925       .  S
O180        C182   1.257       .  A
O180       Al181   1.890       .  S
Al181       O189   1.865       .  S
Al181       O191   1.954       .  S
Al181       O190   1.766       .  S
C182        O195   1.265       .  A
C182       C1217   1.475       .  S
O183        C193   1.261       .  A
O183       Al185   1.881       .  S
O184        C197   1.260       .  A
O184       Al194   1.892       .  S
Al185       O198   1.925       .  S
Al185       O195   1.942       .  S
Al185       O190   1.770       .  S
O186        C193   1.273       .  A
O186       Al194   1.948       .  S
O187        C196   1.268       .  A
O187       Al194   1.952       .  S
O188       Al194   1.891       .  S
O189        C196   1.257       .  A
O190       Al194   1.774       .  S
O191        C192   1.270       .  A
C192       C1177   1.465       .  S
C193       C1137   1.476       .  S
C196       C1153   1.477       .  S
C197        O198   1.264       .  A
C197       C1185   1.459       .  S
O199        C214   1.260       .  A
O199       Al207   1.888       .  S
C200        O210   1.260       .  A
C200        O201   1.265       .  A
C200       C1193   1.464       .  S
O201       Al203   1.918       .  S
O202        C204   1.259       .  A
O202       Al203   1.898       .  S
Al203       O211   1.881       .  S
Al203       O213   1.934       .  S
Al203       O212   1.772       .  S
C204        O217   1.268       .  A
C204       C1121   1.485       .  S
O205        C215   1.267       .  A
O205       Al207   1.907       .  S
O206        C219   1.262       .  A
O206       Al216   1.899       .  S
Al207       O220   1.920       .  S
Al207       O217   1.950       .  S
Al207       O212   1.778       .  S
O208        C215   1.271       .  A
O208       Al216   1.945       .  S
O209        C218   1.269       .  A
O209       Al216   1.963       .  S
O210       Al216   1.890       .  S
O211        C218   1.259       .  A
O212       Al216   1.778       .  S
O213        C214   1.267       .  A
C214       C1113   1.473       .  S
C215       C1081   1.491       .  S
C218       C1089   1.496       .  S
C219        O220   1.265       .  A
C219       C1209   1.467       .  S
O221        C236   1.255       .  A
O221       Al229   1.872       .  S
C222        O232   1.269       .  A
C222        O223   1.268       .  A
C222       C1057   1.481       .  S
O223       Al225   1.930       .  S
O224        C226   1.258       .  A
O224       Al225   1.878       .  S
Al225       O233   1.866       .  S
Al225       O235   1.944       .  S
Al225       O234   1.766       .  S
C226        O239   1.270       .  A
C226       C1225   1.475       .  S
O227        C237   1.259       .  A
O227       Al229   1.888       .  S
O228        C241   1.265       .  A
O228       Al238   1.904       .  S
Al229       O242   1.933       .  S
Al229       O239   1.949       .  S
Al229       O234   1.766       .  S
O230        C237   1.269       .  A
O230       Al238   1.950       .  S
O231        C240   1.269       .  A
O231       Al238   1.959       .  S
O232       Al238   1.922       .  S
O233        C240   1.257       .  A
O234       Al238   1.777       .  S
O235        C236   1.266       .  A
C236       C1105   1.473       .  S
C237       C1449   1.483       .  S
C240       C1033   1.474       .  S
C241        O242   1.270       .  A
C241       C1041   1.482   1_554  S
O243        C258   1.259       .  A
O243       Al251   1.867       .  S
C244        O254   1.263       .  A
C244        O245   1.266       .  A
C244       C1049   1.469       .  S
O245       Al247   1.926       .  S
O246        C248   1.255       .  A
O246       Al247   1.894       .  S
Al247       O255   1.856       .  S
Al247       O257   1.947       .  S
Al247       O256   1.771       .  S
C248        O261   1.266       .  A
C248       C1129   1.485       .  S
O249        C259   1.267       .  A
O249       Al251   1.894       .  S
O250        C263   1.266       .  A
O250       Al260   1.921       .  S
Al251       O264   1.929       .  S
Al251       O261   1.950       .  S
Al251       O256   1.773       .  S
O252        C259   1.275       .  A
O252       Al260   1.963       .  S
O253        C262   1.270       .  A
O253       Al260   1.970       .  S
O254       Al260   1.902       .  S
O255        C262   1.253       .  A
O256       Al260   1.779       .  S
O257        C258   1.271       .  A
C258       C1169   1.475       .  S
C259       C1393   1.490       .  S
C262       C1009   1.493       .  S
C263        O264   1.266       .  A
C263       C1065   1.480       .  S
O265        C280   1.257       .  A
O265       Al273   1.877       .  S
C266        O276   1.260       .  A
C266        O267   1.267       .  A
C266        C953   1.465       .  S
O267       Al269   1.924       .  S
O268        C270   1.260       .  A
O268       Al269   1.902       .  S
Al269       O277   1.876       .  S
Al269       O279   1.929       .  S
Al269       O278   1.769       .  S
C270        O283   1.269       .  A
C270        C977   1.487       .  S
O271        C281   1.265       .  A
O271       Al273   1.898       .  S
O272        C285   1.262       .  A
O272       Al282   1.893       .  S
Al273       O286   1.928       .  S
Al273       O283   1.953       .  S
Al273       O278   1.772       .  S
O274        C281   1.267       .  A
O274       Al282   1.922       .  S
O275        C284   1.265       .  A
O275       Al282   1.946       .  S
O276       Al282   1.880       .  S
O277        C284   1.258       .  A
O278       Al282   1.777       .  S
O279        C280   1.266       .  A
C280       C1001   1.463       .  S
C281       C1249   1.477       .  S
C284       C1161   1.478       .  S
C285        O286   1.267       .  A
C285        C961   1.469       .  S
O287        C302   1.257       .  A
O287       Al295   1.872       .  S
C288        O298   1.260       .  A
C288        O289   1.267       .  A
C288        C969   1.462       .  S
O289       Al291   1.927       .  S
O290        C292   1.257       .  A
O290       Al291   1.891       .  S
Al291       O299   1.872       .  S
Al291       O301   1.944       .  S
Al291       O300   1.769       .  S
C292        O305   1.269       .  A
C292        C913   1.488       .  S
O293        C303   1.270       .  A
O293       Al295   1.911       .  S
O294        C307   1.260       .  A
O294       Al304   1.889       .  S
Al295       O308   1.923       .  S
Al295       O305   1.964       .  S
Al295       O300   1.780       .  S
O296        C303   1.273       .  A
O296       Al304   1.951       .  S
O297        C306   1.269       .  A
O297       Al304   1.970       .  S
O298       Al304   1.886       .  S
O299        C306   1.256       .  A
O300       Al304   1.778       .  S
O301        C302   1.269       .  A
C302        C929   1.469       .  S
C303       C1233   1.494       .  S
C306       C1097   1.498       .  S
C307        O308   1.264       .  A
C307        C945   1.459       .  S
O309        C324   1.254       .  A
O309       Al317   1.858       .  S
C310        O320   1.271   1_556  A
C310        O311   1.267       .  A
C310        C889   1.482       .  S
O311       Al313   1.922   1_556  S
O312        C314   1.258   1_556  A
O312       Al313   1.891   1_556  S
Al313       O321   1.881       .  S
Al313       O323   1.939       .  S
Al313       O322   1.771       .  S
C314        O327   1.269       .  A
C314        C921   1.490   1_554  S
O315        C325   1.261       .  A
O315       Al317   1.886       .  S
O316        C329   1.266       .  A
O316       Al326   1.920       .  S
Al317       O330   1.951       .  S
Al317       O327   1.963       .  S
Al317       O322   1.775       .  S
O318        C325   1.268       .  A
O318       Al326   1.940       .  S
O319        C328   1.263       .  A
O319       Al326   1.930       .  S
O320       Al326   1.930       .  S
O321        C328   1.258       .  A
O322       Al326   1.779       .  S
O323        C324   1.267       .  A
C324        C993   1.466       .  S
C325        C865   1.477       .  S
C328       C1025   1.471       .  S
C329        O330   1.270       .  A
C329        C905   1.487       .  S
O331        C346   1.259       .  A
O331       Al339   1.877       .  S
C332        O342   1.269       .  A
C332        O333   1.267       .  A
C332        C897   1.489       .  S
O333       Al335   1.924       .  S
O334        C336   1.258       .  A
O334       Al335   1.903       .  S
Al335       O343   1.884       .  S
Al335       O345   1.937       .  S
Al335       O344   1.778       .  S
C336        O349   1.265       .  A
C336        C985   1.486       .  S
O337        C347   1.268       .  A
O337       Al339   1.905       .  S
O338        C351   1.271       .  A
O338       Al348   1.946       .  S
Al339       O352   1.911       .  S
Al339       O349   1.940       .  S
Al339       O344   1.779       .  S
O340        C347   1.268       .  A
O340       Al348   1.934       .  S
O341        C350   1.265       .  A
O341       Al348   1.944       .  S
O342       Al348   1.931       .  S
O343        C350   1.258       .  A
O344       Al348   1.781       .  S
O345        C346   1.268       .  A
C346        C937   1.474       .  S
C347        C849   1.486       .  S
C350       C1017   1.491       .  S
C351        O352   1.263       .  A
C351        C881   1.487       .  S
O353        C368   1.263       .  A
O353       Al361   1.895       .  S
C354        O364   1.259       .  A
C354        O355   1.263       .  A
C354        C833   1.461       .  S
O355       Al357   1.915       .  S
O356        C358   1.263       .  A
O356       Al357   1.911       .  S
Al357       O365   1.887       .  S
Al357       O367   1.914       .  S
Al357       O366   1.778       .  S
C358        O371   1.262       .  A
C358        C801   1.477       .  S
O359        C369   1.263       .  A
O359       Al361   1.894       .  S
O360        C373   1.261       .  A
O360       Al370   1.901       .  S
Al361       O374   1.912       .  S
Al361       O371   1.914       .  S
Al361       O366   1.775       .  S
O362        C369   1.265       .  A
O362       Al370   1.919       .  S
O363        C372   1.263       .  A
O363       Al370   1.923       .  S
O364       Al370   1.887       .  S
O365        C372   1.260       .  A
O366       Al370   1.779       .  S
O367        C368   1.263       .  A
C368        C793   1.471       .  S
C369        C873   1.473       .  S
C372        C769   1.480       .  S
C373        O374   1.262       .  A
C373        C825   1.464       .  S
O375        C390   1.266       .  A
O375       Al383   1.893       .  S
C376        O386   1.260       .  A
C376        O377   1.261       .  A
C376        C817   1.462       .  S
O377       Al379   1.898       .  S
O378        C380   1.261       .  A
O378       Al379   1.915       .  S
Al379       O387   1.850       .  S
Al379       O389   1.918       .  S
Al379       O388   1.772       .  S
C380        O393   1.260       .  A
C380        C753   1.482       .  S
O381        C391   1.265       .  A
O381       Al383   1.878       .  S
O382        C395   1.256       .  A
O382       Al392   1.898       .  S
Al383       O396   1.910       .  S
Al383       O393   1.917       .  S
Al383       O388   1.776       .  S
O384        C391   1.278       .  A
O384       Al392   1.976       .  S
O385        C394   1.269       .  A
O385       Al392   1.965       .  S
O386       Al392   1.898       .  S
O387        C394   1.254       .  A
O388       Al392   1.785       .  S
O389        C390   1.267       .  A
C390        C737   1.468       .  S
C391        C857   1.488       .  S
C394        C721   1.493       .  S
C395        O396   1.258       .  A
C395        C841   1.463       .  S
O397        C412   1.265       .  A
O397       Al405   1.898       .  S
C398        O408   1.262       .  A
C398        O399   1.259       .  A
C398        C705   1.467       .  S
O399       Al401   1.897       .  S
O400        C402   1.263       .  A
O400       Al401   1.908       .  S
Al401       O409   1.850       .  S
Al401       O411   1.912       .  S
Al401       O410   1.772       .  S
C402        O415   1.263       .  A
C402        C809   1.479       .  S
O403        C413   1.261       .  A
O403       Al405   1.873       .  S
O404        C417   1.257       .  A
O404       Al414   1.899       .  S
Al405       O418   1.922       .  S
Al405       O415   1.920       .  S
Al405       O410   1.775       .  S
O406        C413   1.275       .  A
O406       Al414   1.961       .  S
O407        C416   1.269       .  A
O407       Al414   1.952       .  S
O408       Al414   1.913       .  S
O409        C416   1.256       .  A
O410       Al414   1.781       .  S
O411        C412   1.264       .  A
C412        C745   1.466       .  S
C413       C1593   1.477       .  S
C416        C673   1.481       .  S
C417        O418   1.260       .  A
C417        C689   1.469       .  S
O419        C434   1.265       .  A
O419       Al427   1.905       .  S
C420        O430   1.260       .  A
C420        O421   1.259       .  A
C420        C697   1.470       .  S
O421       Al423   1.902       .  S
O422        C424   1.262       .  A
O422       Al423   1.908       .  S
Al423       O431   1.864       .  S
Al423       O433   1.905       .  S
Al423       O432   1.780       .  S
C424        O437   1.263       .  A
C424        C761   1.485       .  S
O425        C435   1.267       .  A
O425       Al427   1.897       .  S
O426        C439   1.263   1_556  A
O426       Al436   1.921       .  S
Al427       O440   1.896       .  S
Al427       O437   1.921       .  S
Al427       O432   1.780       .  S
O428        C435   1.268       .  A
O428       Al436   1.924       .  S
O429        C438   1.267       .  A
O429       Al436   1.947       .  S
O430       Al436   1.906       .  S
O431        C438   1.256       .  A
O432       Al436   1.785       .  S
O433        C434   1.262       .  A
C434        C785   1.466       .  S
C435       C1521   1.474       .  S
C438        C665   1.486       .  S
C439        O440   1.258   1_554  A
C439        C713   1.474       .  S
O441        C456   1.263       .  A
O441       Al449   1.903       .  S
C442        O452   1.260       .  A
C442        O443   1.262       .  A
C442        C593   1.465       .  S
O443       Al445   1.919       .  S
O444        C446   1.262       .  A
O444       Al445   1.901       .  S
Al445       O453   1.874       .  S
Al445       O455   1.911       .  S
Al445       O454   1.774       .  S
C446        O459   1.265       .  A
C446        C625   1.482       .  S
O447        C457   1.265       .  A
O447       Al449   1.901       .  S
O448        C461   1.264       .  A
O448       Al458   1.910       .  S
Al449       O462   1.917       .  S
Al449       O459   1.931       .  S
Al449       O454   1.779       .  S
O450        C457   1.264       .  A
O450       Al458   1.906       .  S
O451        C460   1.264       .  A
O451       Al458   1.934       .  S
O452       Al458   1.897       .  S
O453        C460   1.259       .  A
O454       Al458   1.778       .  S
O455        C456   1.263       .  A
C456        C649   1.471       .  S
C457       C1145   1.472       .  S
C460        C681   1.480       .  S
C461        O462   1.264       .  A
C461        C609   1.469       .  S
O463        C478   1.264       .  A
O463       Al471   1.906       .  S
C464        O474   1.266       .  A
C464        O465   1.259       .  A
C464        C617   1.472       .  S
O465       Al467   1.885   1_554  S
O466        C468   1.265   1_554  A
O466       Al467   1.920   1_554  S
Al467       O475   1.879       .  S
Al467       O477   1.892       .  S
Al467       O476   1.778       .  S
C468        O481   1.263       .  A
C468        C569   1.483   1_556  S
O469        C479   1.264       .  A
O469       Al471   1.896       .  S
O470        C483   1.260       .  A
O470       Al480   1.907       .  S
Al471       O484   1.911       .  S
Al471       O481   1.913       .  S
Al471       O476   1.778       .  S
O472        C479   1.272       .  A
O472       Al480   1.955       .  S
O473        C482   1.267       .  A
O473       Al480   1.943       .  S
O474       Al480   1.926   1_554  S
O475        C482   1.259       .  A
O476       Al480   1.785       .  S
O477        C478   1.259       .  A
C478        C577   1.466       .  S
C479       C1073   1.491       .  S
C482        C657   1.486       .  S
C483        O484   1.260       .  A
C483        C601   1.472       .  S
O485        C500   1.265       .  A
O485       Al493   1.899       .  S
C486        O496   1.258       .  A
C486        O487   1.261       .  A
C486        C529   1.461       .  S
O487       Al489   1.909       .  S
O488        C490   1.260       .  A
O488       Al489   1.896       .  S
Al489       O497   1.853       .  S
Al489       O499   1.922       .  S
Al489       O498   1.774       .  S
C490        O503   1.265       .  A
C490        C561   1.484       .  S
O491        C501   1.267       .  A
O491       Al493   1.896       .  S
O492        C505   1.259       .  A
O492       Al502   1.897       .  S
Al493       O506   1.914       .  S
Al493       O503   1.938       .  S
Al493       O498   1.779       .  S
O494        C501   1.272       .  A
O494       Al502   1.945       .  S
O495        C504   1.269       .  A
O495       Al502   1.954       .  S
O496       Al502   1.896       .  S
O497        C504   1.254       .  A
O498       Al502   1.780       .  S
O499        C500   1.265       .  A
C500        C641   1.472       .  S
C501       C1337   1.485       .  S
C504        C777   1.482       .  S
C505        O506   1.262       .  A
C505        C545   1.466       .  S
O507        C522   1.265       .  A
O507       Al515   1.902       .  S
C508        O518   1.259       .  A
C508        O509   1.260       .  A
C508        C553   1.463       .  S
O509       Al511   1.901       .  S
O510        C512   1.265       .  A
O510       Al511   1.920       .  S
Al511       O519   1.870       .  S
Al511       O521   1.903       .  S
Al511       O520   1.777       .  S
C512        O525   1.263       .  A
C512        C633   1.481       .  S
O513        C523   1.263       .  A
O513       Al515   1.888       .  S
O514        C527   1.259       .  A
O514       Al524   1.901       .  S
Al515       O528   1.911       .  S
Al515       O525   1.916       .  S
Al515       O520   1.775       .  S
O516        C523   1.272       .  A
O516       Al524   1.949       .  S
O517        C526   1.269       .  A
O517       Al524   1.957       .  S
O518       Al524   1.897       .  S
O519        C526   1.259       .  A
O520       Al524   1.783       .  S
O521        C522   1.262       .  A
C522        C585   1.466       .  S
C523       C1297   1.486       .  S
C526        C729   1.489       .  S
C527        O528   1.261       .  A
C527        C537   1.467       .  S
C529        C530   1.400       .  A
C529        C534   1.402   1_554  A
C530        C531   1.396   1_554  A
C530        H539   1.084       .  S
C531        C532   1.402       .  A
C531        H540   1.084       .  S
C532        C538   1.399       .  A
C532        C533   1.414       .  A
C533        C535   1.404       .  A
C533        C534   1.402       .  A
C534        H541   1.085   1_556  S
C535        C536   1.398       .  A
C535        H542   1.083       .  S
C536        C537   1.402       .  A
C536        H543   1.083       .  S
C537        C538   1.403       .  A
C538        H544   1.085       .  S
C545        C546   1.402       .  A
C545        C550   1.404       .  A
C546        C547   1.397       .  A
C546        H555   1.083       .  S
C547        C548   1.403       .  A
C547        H556   1.084       .  S
C548        C554   1.399       .  A
C548        C549   1.414       .  A
C549        C551   1.403       .  A
C549        C550   1.399       .  A
C550        H557   1.085       .  S
C551        C552   1.396       .  A
C551        H558   1.084       .  S
C552        C553   1.401       .  A
C552        H559   1.083       .  S
C553        C554   1.403       .  A
C554        H560   1.085       .  S
C561        C562   1.410       .  A
C561        C566   1.404       .  A
C562        C563   1.400       .  A
C562        H571   1.083       .  S
C563        C564   1.401       .  A
C563        H572   1.084       .  S
C564        C570   1.412       .  A
C564        C565   1.416       .  A
C565        C567   1.398   1_554  A
C565        C566   1.407       .  A
C566        H573   1.084       .  S
C567        C568   1.394       .  A
C567        H574   1.084       .  S
C568        C569   1.409   1_556  A
C568        H575   1.084       .  S
C569        C570   1.406       .  A
C570        H576   1.084       .  S
C577        C578   1.407       .  A
C577        C582   1.400       .  A
C578        C579   1.391       .  A
C578        H587   1.083       .  S
C579        C580   1.397       .  A
C579        H588   1.084       .  S
C580        C586   1.399       .  A
C580        C581   1.417       .  A
C581        C583   1.398       .  A
C581        C582   1.399       .  A
C582        H589   1.085       .  S
C583        C584   1.392       .  A
C583        H590   1.084       .  S
C584        C585   1.407       .  A
C584        H591   1.083       .  S
C585        C586   1.399       .  A
C586        H592   1.085       .  S
C593        C594   1.402       .  A
C593        C598   1.404       .  A
C594        C595   1.395       .  A
C594        H603   1.084       .  S
C595        C596   1.402       .  A
C595        H604   1.084       .  S
C596        C602   1.401       .  A
C596        C597   1.415       .  A
C597        C599   1.404       .  A
C597        C598   1.405       .  A
C598        H605   1.084       .  S
C599        C600   1.400       .  A
C599        H606   1.084       .  S
C600        C601   1.404       .  A
C600        H607   1.083       .  S
C601        C602   1.404       .  A
C602        H608   1.085       .  S
C609        C610   1.405       .  A
C609        C614   1.399       .  A
C610        C611   1.398       .  A
C610        H619   1.084       .  S
C611        C612   1.401       .  A
C611        H620   1.084       .  S
C612        C618   1.408       .  A
C612        C613   1.418       .  A
C613        C615   1.398       .  A
C613        C614   1.403       .  A
C614        H621   1.085       .  S
C615        C616   1.392       .  A
C615        H622   1.084       .  S
C616        C617   1.407       .  A
C616        H623   1.084       .  S
C617        C618   1.402       .  A
C618        H624   1.084       .  S
C625        C626   1.408       .  A
C625        C630   1.405       .  A
C626        C627   1.399       .  A
C626        H635   1.083       .  S
C627        C628   1.401       .  A
C627        H636   1.084       .  S
C628        C634   1.411       .  A
C628        C629   1.416       .  A
C629        C631   1.399       .  A
C629        C630   1.406       .  A
C630        H637   1.085       .  S
C631        C632   1.395       .  A
C631        H638   1.084       .  S
C632        C633   1.408       .  A
C632        H639   1.083       .  S
C633        C634   1.405       .  A
C634        H640   1.084       .  S
C641        C642   1.407       .  A
C641        C646   1.401       .  A
C642        C643   1.396       .  A
C642        H651   1.083       .  S
C643        C644   1.401       .  A
C643        H652   1.084       .  S
C644        C650   1.404       .  A
C644        C645   1.416       .  A
C645        C647   1.398       .  A
C645        C646   1.400       .  A
C646        H653   1.085       .  S
C647        C648   1.392       .  A
C647        H654   1.084       .  S
C648        C649   1.406       .  A
C648        H655   1.084       .  S
C649        C650   1.403       .  A
C650        H656   1.084       .  S
C657        C658   1.407       .  A
C657        C662   1.405       .  A
C658        C659   1.405       .  A
C658        H667   1.083       .  S
C659        C660   1.406   1_655  A
C659        H668   1.083   1_655  S
C660        C666   1.413       .  A
C660        C661   1.414       .  A
C661        C663   1.397       .  A
C661        C662   1.399   1_455  A
C662        H669   1.084       .  S
C663        C664   1.390       .  A
C663        H670   1.084       .  S
C664        C665   1.409       .  A
C664        H671   1.083       .  S
C665        C666   1.410       .  A
C666        H672   1.084       .  S
C673        C674   1.409       .  A
C673        C678   1.410       .  A
C674        C675   1.385       .  A
C674        H683   1.083       .  S
C675        C676   1.393   1_455  A
C675        H684   1.084       .  S
C676        C682   1.394       .  A
C676        C677   1.414   1_655  A
C677        C679   1.406   1_455  A
C677        C678   1.412       .  A
C678        H685   1.084       .  S
C679        C680   1.405       .  A
C679        H686   1.083   1_655  S
C680        C681   1.407       .  A
C680        H687   1.083       .  S
C681        C682   1.401       .  A
C682        H688   1.085       .  S
C689        C690   1.402       .  A
C689        C694   1.404       .  A
C690        C691   1.397       .  A
C690        H699   1.084       .  S
C691        C692   1.402       .  A
C691        H700   1.084       .  S
C692        C698   1.402       .  A
C692        C693   1.415       .  A
C693        C695   1.404       .  A
C693        C694   1.404       .  A
C694        H701   1.085       .  S
C695        C696   1.399       .  A
C695        H702   1.084       .  S
C696        C697   1.403       .  A
C696        H703   1.083       .  S
C697        C698   1.403       .  A
C698        H704   1.085       .  S
C705        C706   1.404       .  A
C705        C710   1.399       .  A
C706        C707   1.397       .  A
C706        H715   1.084       .  S
C707        C708   1.401       .  A
C707        H716   1.084       .  S
C708        C714   1.407       .  A
C708        C709   1.418       .  A
C709        C711   1.398       .  A
C709        C710   1.405       .  A
C710        H717   1.085       .  S
C711        C712   1.394       .  A
C711        H718   1.084       .  S
C712        C713   1.407       .  A
C712        H719   1.084       .  S
C713        C714   1.402       .  A
C714        H720   1.084       .  S
C721        C722   1.411       .  A
C721        C726   1.415       .  A
C722        C723   1.385       .  A
C722        H731   1.083       .  S
C723        C724   1.393   1_455  A
C723        H732   1.084       .  S
C724        C730   1.396       .  A
C724        C725   1.413   1_655  A
C725        C727   1.410   1_455  A
C725        C726   1.421       .  A
C726        H733   1.083       .  S
C727        C728   1.412       .  A
C727        H734   1.083       .  S
C728        C729   1.408       .  A
C728        H735   1.083       .  S
C729        C730   1.403       .  A
C730        H736   1.085       .  S
C737        C738   1.406       .  A
C737        C742   1.401       .  A
C738        C739   1.393       .  A
C738        H747   1.083       .  S
C739        C740   1.399       .  A
C739        H748   1.084       .  S
C740        C746   1.399       .  A
C740        C741   1.416       .  A
C741        C743   1.399       .  A
C741        C742   1.398       .  A
C742        H749   1.085       .  S
C743        C744   1.392       .  A
C743        H750   1.084       .  S
C744        C745   1.406       .  A
C744        H751   1.083       .  S
C745        C746   1.401       .  A
C746        H752   1.085       .  S
C753        C754   1.409       .  A
C753        C758   1.404       .  A
C754        C755   1.396       .  A
C754        H763   1.083       .  S
C755        C756   1.399       .  A
C755        H764   1.084       .  S
C756        C762   1.408       .  A
C756        C757   1.416       .  A
C757        C759   1.400       .  A
C757        C758   1.411       .  A
C758        H765   1.084       .  S
C759        C760   1.398       .  A
C759        H766   1.084       .  S
C760        C761   1.410       .  A
C760        H767   1.083       .  S
C761        C762   1.405       .  A
C762        H768   1.084       .  S
C769        C770   1.407       .  A
C769        C774   1.403       .  A
C770        C771   1.402       .  A
C770        H779   1.083       .  S
C771        C772   1.403   1_455  A
C771        H780   1.083   1_455  S
C772        C778   1.411       .  A
C772        C773   1.415   1_655  A
C773        C775   1.395   1_455  A
C773        C774   1.399       .  A
C774        H781   1.085       .  S
C775        C776   1.389       .  A
C775        H782   1.084       .  S
C776        C777   1.409       .  A
C776        H783   1.083       .  S
C777        C778   1.407       .  A
C778        H784   1.084       .  S
C785        C786   1.405       .  A
C785        C790   1.401   1_556  A
C786        C787   1.392       .  A
C786        H795   1.084       .  S
C787        C788   1.399   1_556  A
C787        H796   1.082       .  S
C788        C794   1.399       .  A
C788        C789   1.416       .  A
C789        C791   1.400       .  A
C789        C790   1.402       .  A
C790        H797   1.083       .  S
C791        C792   1.395       .  A
C791        H798   1.082       .  S
C792        C793   1.407       .  A
C792        H799   1.084       .  S
C793        C794   1.402       .  A
C794        H800   1.083       .  S
C801        C802   1.408       .  A
C801        C806   1.403       .  A
C802        C803   1.395       .  A
C802        H811   1.084       .  S
C803        C804   1.399       .  A
C803        H812   1.084       .  S
C804        C810   1.406       .  A
C804        C805   1.416       .  A
C805        C807   1.399       .  A
C805        C806   1.408       .  A
C806        H813   1.084       .  S
C807        C808   1.396       .  A
C807        H814   1.084       .  S
C808        C809   1.409       .  A
C808        H815   1.083       .  S
C809        C810   1.403       .  A
C810        H816   1.084       .  S
C817        C818   1.400       .  A
C817        C822   1.402       .  A
C818        C819   1.398       .  A
C818        H827   1.083       .  S
C819        C820   1.404       .  A
C819        H828   1.084       .  S
C820        C826   1.399       .  A
C820        C821   1.414       .  A
C821        C823   1.403       .  A
C821        C822   1.399       .  A
C822        H829   1.085       .  S
C823        C824   1.396       .  A
C823        H830   1.084       .  S
C824        C825   1.401   1_556  A
C824        H831   1.083   1_556  S
C825        C826   1.404   1_554  A
C826        H832   1.085   1_556  S
C833        C834   1.401       .  A
C833        C838   1.402       .  A
C834        C835   1.394       .  A
C834        H843   1.084       .  S
C835        C836   1.401       .  A
C835        H844   1.084       .  S
C836        C842   1.398       .  A
C836        C837   1.415       .  A
C837        C839   1.403       .  A
C837        C838   1.400       .  A
C838        H845   1.085       .  S
C839        C840   1.397       .  A
C839        H846   1.084       .  S
C840        C841   1.402       .  A
C840        H847   1.083       .  S
C841        C842   1.401       .  A
C842        H848   1.085       .  S
C849        C850   1.408       .  A
C849        C854   1.405       .  A
C850        C851   1.404       .  A
C850        H859   1.083       .  S
C851        C852   1.405       .  A
C851        H860   1.084       .  S
C852        C858   1.414       .  A
C852        C853   1.414       .  A
C853        C855   1.399       .  A
C853        C854   1.405       .  A
C854        H861   1.084       .  S
C855        C856   1.394       .  A
C855        H862   1.084       .  S
C856        C857   1.408       .  A
C856        H863   1.083       .  S
C857        C858   1.410       .  A
C858        H864   1.084       .  S
C865        C866   1.405       .  A
C865        C870   1.408       .  A
C866        C867   1.395       .  A
C866        H875   1.083       .  S
C867        C868   1.400       .  A
C867        H876   1.084       .  S
C868        C874   1.401       .  A
C868        C869   1.414       .  A
C869        C871   1.403       .  A
C869        C870   1.404       .  A
C870        H877   1.084       .  S
C871        C872   1.398       .  A
C871        H878   1.084       .  S
C872        C873   1.405       .  A
C872        H879   1.083       .  S
C873        C874   1.403       .  A
C874        H880   1.084       .  S
C881        C882   1.408       .  A
C881        C886   1.407       .  A
C882        C883   1.397       .  A
C882        H891   1.084       .  S
C883        C884   1.400       .  A
C883        H892   1.084       .  S
C884        C890   1.411       .  A
C884        C885   1.418       .  A
C885        C887   1.402       .  A
C885        C886   1.415       .  A
C886        H893   1.084       .  S
C887        C888   1.401       .  A
C887        H894   1.083       .  S
C888        C889   1.406       .  A
C888        H895   1.083       .  S
C889        C890   1.404       .  A
C890        H896   1.084       .  S
C897        C898   1.406       .  A
C897        C902   1.409       .  A
C898        C899   1.401       .  A
C898        H907   1.083       .  S
C899        C900   1.403       .  A
C899        H908   1.084       .  S
C900        C906   1.412       .  A
C900        C901   1.415       .  A
C901        C903   1.405       .  A
C901        C902   1.415       .  A
C902        H909   1.084       .  S
C903        C904   1.403       .  A
C903        H910   1.083       .  S
C904        C905   1.405       .  A
C904        H911   1.083       .  S
C905        C906   1.408       .  A
C906        H912   1.084       .  S
C913        C914   1.406       .  A
C913        C918   1.410       .  A
C914        C915   1.402   1_556  A
C914        H923   1.083       .  S
C915        C916   1.404   1_554  A
C915        H924   1.083       .  S
C916        C922   1.414   1_556  A
C916        C917   1.415       .  A
C917        C919   1.404       .  A
C917        C918   1.413       .  A
C918        H925   1.085       .  S
C919        C920   1.401       .  A
C919        H926   1.084       .  S
C920        C921   1.407       .  A
C920        H927   1.083       .  S
C921        C922   1.409   1_556  A
C922        H928   1.084       .  S
C929        C930   1.406       .  A
C929        C934   1.401       .  A
C930        C931   1.395       .  A
C930        H939   1.084       .  S
C931        C932   1.400       .  A
C931        H940   1.084       .  S
C932        C938   1.403       .  A
C932        C933   1.417       .  A
C933        C935   1.400       .  A
C933        C934   1.403       .  A
C934        H941   1.085       .  S
C935        C936   1.395       .  A
C935        H942   1.084       .  S
C936        C937   1.406       .  A
C936        H943   1.083       .  S
C937        C938   1.403       .  A
C938        H944   1.085       .  S
C945        C946   1.401       .  A
C945        C950   1.400       .  A
C946        C947   1.394       .  A
C946        H955   1.084       .  S
C947        C948   1.401       .  A
C947        H956   1.084       .  S
C948        C954   1.398       .  A
C948        C949   1.416       .  A
C949        C951   1.401       .  A
C949        C950   1.399       .  A
C950        H957   1.085       .  S
C951        C952   1.395       .  A
C951        H958   1.084       .  S
C952        C953   1.404       .  A
C952        H959   1.083       .  S
C953        C954   1.400       .  A
C954        H960   1.085       .  S
C961        C962   1.403       .  A
C961        C966   1.403       .  A
C962        C963   1.396       .  A
C962        H971   1.083       .  S
C963        C964   1.402       .  A
C963        H972   1.084       .  S
C964        C970   1.402       .  A
C964        C965   1.415       .  A
C965        C967   1.402       .  A
C965        C966   1.400       .  A
C966        H973   1.085       .  S
C967        C968   1.395       .  A
C967        H974   1.084       .  S
C968        C969   1.402   1_554  A
C968        H975   1.084   1_554  S
C969        C970   1.400   1_556  A
C970        H976   1.085       .  S
C977        C978   1.407       .  A
C977        C982   1.409       .  A
C978        C979   1.401       .  A
C978        H987   1.083       .  S
C979        C980   1.403       .  A
C979        H988   1.084       .  S
C980        C986   1.412       .  A
C980        C981   1.415       .  A
C981        C983   1.403       .  A
C981        C982   1.412       .  A
C982        H989   1.084       .  S
C983        C984   1.400       .  A
C983        H990   1.084       .  S
C984        C985   1.406       .  A
C984        H991   1.084       .  S
C985        C986   1.408       .  A
C986        H992   1.084       .  S
C993        C994   1.406       .  A
C993        C998   1.401       .  A
C994        C995   1.392       .  A
C994       H1003   1.084       .  S
C995        C996   1.398       .  A
C995       H1004   1.084       .  S
C996       C1002   1.398       .  A
C996        C997   1.417       .  A
C997        C999   1.401       .  A
C997        C998   1.401       .  A
C998       H1005   1.084       .  S
C999       C1000   1.395       .  A
C999       H1006   1.084       .  S
C1000      C1001   1.404       .  A
C1000      H1007   1.084       .  S
C1001      C1002   1.400       .  A
C1002      H1008   1.085       .  S
C1009      C1010   1.411       .  A
C1009      C1014   1.412       .  A
C1010      C1011   1.389       .  A
C1010      H1019   1.083       .  S
C1011      C1012   1.395       .  A
C1011      H1020   1.084       .  S
C1012      C1018   1.401       .  A
C1012      C1013   1.414       .  A
C1013      C1015   1.407       .  A
C1013      C1014   1.418       .  A
C1014      H1021   1.084       .  S
C1015      C1016   1.408       .  A
C1015      H1022   1.083       .  S
C1016      C1017   1.408       .  A
C1016      H1023   1.083       .  S
C1017      C1018   1.405       .  A
C1018      H1024   1.084       .  S
C1025      C1026   1.404       .  A
C1025      C1030   1.400       .  A
C1026      C1027   1.404       .  A
C1026      H1035   1.083       .  S
C1027      C1028   1.406       .  A
C1027      H1036   1.083       .  S
C1028      C1034   1.411       .  A
C1028      C1029   1.416       .  A
C1029      C1031   1.397       .  A
C1029      C1030   1.397       .  A
C1030      H1037   1.085       .  S
C1031      C1032   1.389       .  A
C1031      H1038   1.084       .  S
C1032      C1033   1.405       .  A
C1032      H1039   1.084       .  S
C1033      C1034   1.407       .  A
C1034      H1040   1.084       .  S
C1041      C1042   1.407       .  A
C1041      C1046   1.405       .  A
C1042      C1043   1.402       .  A
C1042      H1051   1.083       .  S
C1043      C1044   1.404       .  A
C1043      H1052   1.083       .  S
C1044      C1050   1.410       .  A
C1044      C1045   1.415       .  A
C1045      C1047   1.401       .  A
C1045      C1046   1.403       .  A
C1046      H1053   1.084       .  S
C1047      C1048   1.395       .  A
C1047      H1054   1.084       .  S
C1048      C1049   1.401       .  A
C1048      H1055   1.084       .  S
C1049      C1050   1.405       .  A
C1050      H1056   1.084       .  S
C1057      C1058   1.406       .  A
C1057      C1062   1.406       .  A
C1058      C1059   1.399       .  A
C1058      H1067   1.083       .  S
C1059      C1060   1.402       .  A
C1059      H1068   1.084       .  S
C1060      C1066   1.409       .  A
C1060      C1061   1.416       .  A
C1061      C1063   1.402       .  A
C1061      C1062   1.409       .  A
C1062      H1069   1.084       .  S
C1063      C1064   1.398       .  A
C1063      H1070   1.084       .  S
C1064      C1065   1.406       .  A
C1064      H1071   1.084       .  S
C1065      C1066   1.405       .  A
C1066      H1072   1.084       .  S
C1073      C1074   1.407       .  A
C1073      C1078   1.410       .  A
C1074      C1075   1.400       .  A
C1074      H1083   1.083       .  S
C1075      C1076   1.403       .  A
C1075      H1084   1.084       .  S
C1076      C1082   1.411       .  A
C1076      C1077   1.414       .  A
C1077      C1079   1.404       .  A
C1077      C1078   1.412       .  A
C1078      H1085   1.084       .  S
C1079      C1080   1.401       .  A
C1079      H1086   1.084       .  S
C1080      C1081   1.407       .  A
C1080      H1087   1.083       .  S
C1081      C1082   1.410       .  A
C1082      H1088   1.084       .  S
C1089      C1090   1.409       .  A
C1089      C1094   1.406       .  A
C1090      C1091   1.412       .  A
C1090      H1099   1.083       .  S
C1091      C1092   1.410       .  A
C1091      H1100   1.083       .  S
C1092      C1098   1.423       .  A
C1092      C1093   1.413       .  A
C1093      C1095   1.395       .  A
C1093      C1094   1.402       .  A
C1094      H1101   1.084       .  S
C1095      C1096   1.390       .  A
C1095      H1102   1.084       .  S
C1096      C1097   1.409       .  A
C1096      H1103   1.083       .  S
C1097      C1098   1.416       .  A
C1098      H1104   1.083       .  S
C1105      C1106   1.406   1_554  A
C1105      C1110   1.403       .  A
C1106      C1107   1.394       .  A
C1106      H1115   1.084       .  S
C1107      C1108   1.400       .  A
C1107      H1116   1.084       .  S
C1108      C1114   1.402       .  A
C1108      C1109   1.416   1_556  A
C1109      C1111   1.402       .  A
C1109      C1110   1.405       .  A
C1110      H1117   1.084       .  S
C1111      C1112   1.397   1_554  A
C1111      H1118   1.084       .  S
C1112      C1113   1.405       .  A
C1112      H1119   1.083   1_556  S
C1113      C1114   1.403       .  A
C1114      H1120   1.085       .  S
C1121      C1122   1.406       .  A
C1121      C1126   1.408       .  A
C1122      C1123   1.402       .  A
C1122      H1131   1.083       .  S
C1123      C1124   1.404       .  A
C1123      H1132   1.084       .  S
C1124      C1130   1.411       .  A
C1124      C1125   1.414       .  A
C1125      C1127   1.403       .  A
C1125      C1126   1.409       .  A
C1126      H1133   1.084       .  S
C1127      C1128   1.400       .  A
C1127      H1134   1.084       .  S
C1128      C1129   1.405       .  A
C1128      H1135   1.083       .  S
C1129      C1130   1.410       .  A
C1130      H1136   1.084       .  S
C1137      C1138   1.407       .  A
C1137      C1142   1.404       .  A
C1138      C1139   1.397       .  A
C1138      H1147   1.083       .  S
C1139      C1140   1.401       .  A
C1139      H1148   1.084       .  S
C1140      C1146   1.403       .  A
C1140      C1141   1.414       .  A
C1141      C1143   1.400       .  A
C1141      C1142   1.401       .  A
C1142      H1149   1.084       .  S
C1143      C1144   1.394       .  A
C1143      H1150   1.084       .  S
C1144      C1145   1.406       .  A
C1144      H1151   1.083       .  S
C1145      C1146   1.404       .  A
C1146      H1152   1.084       .  S
C1153      C1154   1.405       .  A
C1153      C1158   1.402       .  A
C1154      C1155   1.408       .  A
C1154      H1163   1.083       .  S
C1155      C1156   1.409       .  A
C1155      H1164   1.083       .  S
C1156      C1162   1.414       .  A
C1156      C1157   1.414       .  A
C1157      C1159   1.397       .  A
C1157      C1158   1.395       .  A
C1158      H1165   1.085       .  S
C1159      C1160   1.388       .  A
C1159      H1166   1.084       .  S
C1160      C1161   1.404       .  A
C1160      H1167   1.084       .  S
C1161      C1162   1.411       .  A
C1162      H1168   1.084       .  S
C1169      C1170   1.408       .  A
C1169      C1174   1.403       .  A
C1170      C1171   1.393       .  A
C1170      H1179   1.083       .  S
C1171      C1172   1.398       .  A
C1171      H1180   1.084       .  S
C1172      C1178   1.402       .  A
C1172      C1173   1.417       .  A
C1173      C1175   1.400       .  A
C1173      C1174   1.404       .  A
C1174      H1181   1.084       .  S
C1175      C1176   1.395       .  A
C1175      H1182   1.084       .  S
C1176      C1177   1.405       .  A
C1176      H1183   1.084       .  S
C1177      C1178   1.400       .  A
C1178      H1184   1.085       .  S
C1185      C1186   1.401       .  A
C1185      C1190   1.401       .  A
C1186      C1187   1.394       .  A
C1186      H1195   1.084       .  S
C1187      C1188   1.401       .  A
C1187      H1196   1.084       .  S
C1188      C1194   1.398       .  A
C1188      C1189   1.415       .  A
C1189      C1191   1.403       .  A
C1189      C1190   1.400       .  A
C1190      H1197   1.085       .  S
C1191      C1192   1.397       .  A
C1191      H1198   1.084       .  S
C1192      C1193   1.403       .  A
C1192      H1199   1.083       .  S
C1193      C1194   1.400       .  A
C1194      H1200   1.085       .  S
C1201      C1202   1.402       .  A
C1201      C1206   1.403       .  A
C1202      C1203   1.396       .  A
C1202      H1211   1.083       .  S
C1203      C1204   1.402       .  A
C1203      H1212   1.084       .  S
C1204      C1210   1.400       .  A
C1204      C1205   1.414       .  A
C1205      C1207   1.403       .  A
C1205      C1206   1.401       .  A
C1206      H1213   1.085       .  S
C1207      C1208   1.397       .  A
C1207      H1214   1.084       .  S
C1208      C1209   1.402   1_554  A
C1208      H1215   1.083   1_554  S
C1209      C1210   1.404   1_556  A
C1210      H1216   1.085       .  S
C1217      C1218   1.404       .  A
C1217      C1222   1.405       .  A
C1218      C1219   1.398       .  A
C1218      H1227   1.083       .  S
C1219      C1220   1.402       .  A
C1219      H1228   1.084       .  S
C1220      C1226   1.406       .  A
C1220      C1221   1.416       .  A
C1221      C1223   1.402       .  A
C1221      C1222   1.405       .  A
C1222      H1229   1.085       .  S
C1223      C1224   1.397       .  A
C1223      H1230   1.084       .  S
C1224      C1225   1.406       .  A
C1224      H1231   1.084       .  S
C1225      C1226   1.404       .  A
C1226      H1232   1.085       .  S
C1233      C1234   1.408       .  A
C1233      C1238   1.410       .  A
C1234      C1235   1.404       .  A
C1234      H1243   1.083       .  S
C1235      C1236   1.405       .  A
C1235      H1244   1.083       .  S
C1236      C1242   1.415       .  A
C1236      C1237   1.414       .  A
C1237      C1239   1.403       .  A
C1237      C1238   1.412       .  A
C1238      H1245   1.084       .  S
C1239      C1240   1.400       .  A
C1239      H1246   1.083       .  S
C1240      C1241   1.407       .  A
C1240      H1247   1.083       .  S
C1241      C1242   1.413       .  A
C1242      H1248   1.084       .  S
C1249      C1250   1.406       .  A
C1249      C1254   1.406       .  A
C1250      C1251   1.395       .  A
C1250      H1259   1.083       .  S
C1251      C1252   1.400       .  A
C1251      H1260   1.084       .  S
C1252      C1258   1.401       .  A
C1252      C1253   1.414       .  A
C1253      C1255   1.402       .  A
C1253      C1254   1.404       .  A
C1254      H1261   1.084       .  S
C1255      C1256   1.398       .  A
C1255      H1262   1.084       .  S
C1256      C1257   1.406       .  A
C1256      H1263   1.083       .  S
C1257      C1258   1.406       .  A
C1258      H1264   1.084       .  S
C1265      C1266   1.404       .  A
C1265      C1270   1.401       .  A
C1266      C1267   1.399       .  A
C1266      H1275   1.083       .  S
C1267      C1268   1.403       .  A
C1267      H1276   1.084       .  S
C1268      C1274   1.408       .  A
C1268      C1269   1.417       .  A
C1269      C1271   1.399       .  A
C1269      C1270   1.404       .  A
C1270      H1277   1.085       .  S
C1271      C1272   1.394       .  A
C1271      H1278   1.084       .  S
C1272      C1273   1.406       .  A
C1272      H1279   1.084       .  S
C1273      C1274   1.404       .  A
C1274      H1280   1.084       .  S
C1281      C1282   1.404       .  A
C1281      C1286   1.405       .  A
C1282      C1283   1.397       .  A
C1282      H1291   1.084       .  S
C1283      C1284   1.402   1_556  A
C1283      H1292   1.084       .  S
C1284      C1290   1.405       .  A
C1284      C1285   1.415   1_554  A
C1285      C1287   1.403   1_556  A
C1285      C1286   1.407       .  A
C1286      H1293   1.084       .  S
C1287      C1288   1.399       .  A
C1287      H1294   1.084       .  S
C1288      C1289   1.404       .  A
C1288      H1295   1.083       .  S
C1289      C1290   1.404       .  A
C1290      H1296   1.085       .  S
C1297      C1298   1.408       .  A
C1297      C1302   1.406       .  A
C1298      C1299   1.399       .  A
C1298      H1307   1.083       .  S
C1299      C1300   1.402       .  A
C1299      H1308   1.084       .  S
C1300      C1306   1.409       .  A
C1300      C1301   1.414       .  A
C1301      C1303   1.400       .  A
C1301      C1302   1.407       .  A
C1302      H1309   1.084       .  S
C1303      C1304   1.397       .  A
C1303      H1310   1.084       .  S
C1304      C1305   1.408       .  A
C1304      H1311   1.083       .  S
C1305      C1306   1.408       .  A
C1306      H1312   1.084       .  S
C1313      C1314   1.408       .  A
C1313      C1318   1.412       .  A
C1314      C1315   1.390       .  A
C1314      H1323   1.083       .  S
C1315      C1316   1.397   1_545  A
C1315      H1324   1.084       .  S
C1316      C1322   1.400       .  A
C1316      C1317   1.413   1_565  A
C1317      C1319   1.408   1_545  A
C1317      C1318   1.416       .  A
C1318      H1325   1.084       .  S
C1319      C1320   1.408       .  A
C1319      H1326   1.083   1_565  S
C1320      C1321   1.407       .  A
C1320      H1327   1.083       .  S
C1321      C1322   1.406       .  A
C1322      H1328   1.085       .  S
C1329      C1330   1.407       .  A
C1329      C1334   1.410       .  A
C1330      C1331   1.397       .  A
C1330      H1339   1.083       .  S
C1331      C1332   1.401       .  A
C1331      H1340   1.084       .  S
C1332      C1338   1.406       .  A
C1332      C1333   1.414       .  A
C1333      C1335   1.405       .  A
C1333      C1334   1.411       .  A
C1334      H1341   1.084       .  S
C1335      C1336   1.403       .  A
C1335      H1342   1.083       .  S
C1336      C1337   1.406       .  A
C1336      H1343   1.083       .  S
C1337      C1338   1.407       .  A
C1338      H1344   1.084       .  S
C1345      C1346   1.407       .  A
C1345      C1350   1.410       .  A
C1346      C1347   1.389       .  A
C1346      H1355   1.084       .  S
C1347      C1348   1.397   1_545  A
C1347      H1356   1.084   1_545  S
C1348      C1354   1.397       .  A
C1348      C1349   1.414   1_565  A
C1349      C1351   1.408   1_545  A
C1349      C1350   1.414       .  A
C1350      H1357   1.084       .  S
C1351      C1352   1.407       .  A
C1351      H1358   1.083       .  S
C1352      C1353   1.405       .  A
C1352      H1359   1.083       .  S
C1353      C1354   1.404       .  A
C1354      H1360   1.085       .  S
C1361      C1362   1.403       .  A
C1361      C1366   1.402       .  A
C1362      C1363   1.400       .  A
C1362      H1371   1.083       .  S
C1363      C1364   1.405   1_556  A
C1363      H1372   1.083   1_556  S
C1364      C1370   1.406       .  A
C1364      C1365   1.415       .  A
C1365      C1367   1.401       .  A
C1365      C1366   1.400   1_554  A
C1366      H1373   1.085       .  S
C1367      C1368   1.395       .  A
C1367      H1374   1.084       .  S
C1368      C1369   1.403       .  A
C1368      H1375   1.084       .  S
C1369      C1370   1.405       .  A
C1370      H1376   1.084       .  S
C1377      C1378   1.404       .  A
C1377      C1382   1.400       .  A
C1378      C1379   1.399       .  A
C1378      H1387   1.084       .  S
C1379      C1380   1.402       .  A
C1379      H1388   1.084       .  S
C1380      C1386   1.409       .  A
C1380      C1381   1.418       .  A
C1381      C1383   1.398       .  A
C1381      C1382   1.405       .  A
C1382      H1389   1.085       .  S
C1383      C1384   1.393       .  A
C1383      H1390   1.084       .  S
C1384      C1385   1.407       .  A
C1384      H1391   1.083       .  S
C1385      C1386   1.405       .  A
C1386      H1392   1.084       .  S
C1393      C1394   1.407       .  A
C1393      C1398   1.412       .  A
C1394      C1395   1.397       .  A
C1394      H1403   1.083       .  S
C1395      C1396   1.402       .  A
C1395      H1404   1.084       .  S
C1396      C1402   1.406       .  A
C1396      C1397   1.413       .  A
C1397      C1399   1.406       .  A
C1397      C1398   1.412       .  A
C1398      H1405   1.084       .  S
C1399      C1400   1.404       .  A
C1399      H1406   1.083       .  S
C1400      C1401   1.405       .  A
C1400      H1407   1.083       .  S
C1401      C1402   1.409       .  A
C1402      H1408   1.084       .  S
C1409      C1410   1.405       .  A
C1409      C1414   1.407       .  A
C1410      C1411   1.398       .  A
C1410      H1419   1.083       .  S
C1411      C1412   1.403       .  A
C1411      H1420   1.084       .  S
C1412      C1418   1.407       .  A
C1412      C1413   1.415       .  A
C1413      C1415   1.404       .  A
C1413      C1414   1.409       .  A
C1414      H1421   1.085       .  S
C1415      C1416   1.400       .  A
C1415      H1422   1.084       .  S
C1416      C1417   1.405       .  A
C1416      H1423   1.083       .  S
C1417      C1418   1.407       .  A
C1418      H1424   1.085       .  S
C1425      C1426   1.405       .  A
C1425      C1430   1.404       .  A
C1426      C1427   1.393       .  A
C1426      H1435   1.083       .  S
C1427      C1428   1.399       .  A
C1427      H1436   1.084       .  S
C1428      C1434   1.397       .  A
C1428      C1429   1.415       .  A
C1429      C1431   1.402       .  A
C1429      C1430   1.399       .  A
C1430      H1437   1.085       .  S
C1431      C1432   1.395       .  A
C1431      H1438   1.084       .  S
C1432      C1433   1.404       .  A
C1432      H1439   1.084       .  S
C1433      C1434   1.400       .  A
C1434      H1440   1.085       .  S
C1441      C1442   1.406       .  A
C1441      C1446   1.407       .  A
C1442      C1443   1.399       .  A
C1442      H1451   1.083   1_554  S
C1443      C1444   1.402       .  A
C1443      H1452   1.084       .  S
C1444      C1450   1.407       .  A
C1444      C1445   1.414       .  A
C1445      C1447   1.402       .  A
C1445      C1446   1.408       .  A
C1446      H1453   1.084       .  S
C1447      C1448   1.399       .  A
C1447      H1454   1.084       .  S
C1448      C1449   1.407       .  A
C1448      H1455   1.083       .  S
C1449      C1450   1.408       .  A
C1450      H1456   1.084       .  S
C1457      C1458   1.408       .  A
C1457      C1462   1.409       .  A
C1458      C1459   1.402       .  A
C1458      H1467   1.083       .  S
C1459      C1460   1.403       .  A
C1459      H1468   1.084       .  S
C1460      C1466   1.414       .  A
C1460      C1461   1.415       .  A
C1461      C1463   1.403       .  A
C1461      C1462   1.412       .  A
C1462      H1469   1.084       .  S
C1463      C1464   1.401       .  A
C1463      H1470   1.084       .  S
C1464      C1465   1.407       .  A
C1464      H1471   1.083   1_556  S
C1465      C1466   1.410       .  A
C1466      H1472   1.084       .  S
C1473      C1474   1.403       .  A
C1473      C1478   1.401       .  A
C1474      C1475   1.394       .  A
C1474      H1483   1.084       .  S
C1475      C1476   1.401       .  A
C1475      H1484   1.084       .  S
C1476      C1482   1.399       .  A
C1476      C1477   1.416       .  A
C1477      C1479   1.400       .  A
C1477      C1478   1.398       .  A
C1478      H1485   1.085       .  S
C1479      C1480   1.393       .  A
C1479      H1486   1.084       .  S
C1480      C1481   1.405       .  A
C1480      H1487   1.084       .  S
C1481      C1482   1.402       .  A
C1482      H1488   1.085       .  S
C1489      C1490   1.403       .  A
C1489      C1494   1.406       .  A
C1490      C1491   1.397       .  A
C1490      H1499   1.083       .  S
C1491      C1492   1.402       .  A
C1491      H1500   1.084       .  S
C1492      C1498   1.404       .  A
C1492      C1493   1.414       .  A
C1493      C1495   1.404       .  A
C1493      C1494   1.407       .  A
C1494      H1501   1.084       .  S
C1495      C1496   1.400       .  A
C1495      H1502   1.084       .  S
C1496      C1497   1.404       .  A
C1496      H1503   1.083       .  S
C1497      C1498   1.405       .  A
C1498      H1504   1.085       .  S
C1505      C1506   1.406       .  A
C1505      C1510   1.403       .  A
C1506      C1507   1.396       .  A
C1506      H1515   1.084       .  S
C1507      C1508   1.400       .  A
C1507      H1516   1.084       .  S
C1508      C1514   1.406       .  A
C1508      C1509   1.417       .  A
C1509      C1511   1.401       .  A
C1509      C1510   1.408       .  A
C1510      H1517   1.084       .  S
C1511      C1512   1.397       .  A
C1511      H1518   1.084       .  S
C1512      C1513   1.404       .  A
C1512      H1519   1.084       .  S
C1513      C1514   1.401       .  A
C1514      H1520   1.085       .  S
C1521      C1522   1.404       .  A
C1521      C1526   1.404       .  A
C1522      C1523   1.400       .  A
C1522      H1531   1.083       .  S
C1523      C1524   1.404       .  A
C1523      H1532   1.083       .  S
C1524      C1530   1.407       .  A
C1524      C1525   1.414       .  A
C1525      C1527   1.400   1_556  A
C1525      C1526   1.402       .  A
C1526      H1533   1.085       .  S
C1527      C1528   1.395       .  A
C1527      H1534   1.084       .  S
C1528      C1529   1.406   1_554  A
C1528      H1535   1.083       .  S
C1529      C1530   1.407       .  A
C1530      H1536   1.084       .  S
C1537      C1538   1.407       .  A
C1537      C1542   1.404   1_554  A
C1538      C1539   1.408       .  A
C1538      H1547   1.083       .  S
C1539      C1540   1.408       .  A
C1539      H1548   1.083       .  S
C1540      C1546   1.417   1_545  A
C1540      C1541   1.415   1_554  A
C1541      C1543   1.397   1_545  A
C1541      C1542   1.401       .  A
C1542      H1549   1.085       .  S
C1543      C1544   1.390       .  A
C1543      H1550   1.084   1_565  S
C1544      C1545   1.407   1_556  A
C1544      H1551   1.084       .  S
C1545      C1546   1.411       .  A
C1546      H1552   1.084       .  S
C1553      C1554   1.406       .  A
C1553      C1558   1.406       .  A
C1554      C1555   1.398       .  A
C1554      H1563   1.083       .  S
C1555      C1556   1.402       .  A
C1555      H1564   1.084       .  S
C1556      C1562   1.408       .  A
C1556      C1557   1.416       .  A
C1557      C1559   1.403       .  A
C1557      C1558   1.408       .  A
C1558      H1565   1.084       .  S
C1559      C1560   1.398       .  A
C1559      H1566   1.084       .  S
C1560      C1561   1.405       .  A
C1560      H1567   1.083       .  S
C1561      C1562   1.406       .  A
C1562      H1568   1.085       .  S
C1569      C1570   1.405       .  A
C1569      C1574   1.401       .  A
C1570      C1571   1.395       .  A
C1570      H1579   1.084       .  S
C1571      C1572   1.400       .  A
C1571      H1580   1.084       .  S
C1572      C1578   1.402       .  A
C1572      C1573   1.417       .  A
C1573      C1575   1.399       .  A
C1573      C1574   1.400       .  A
C1574      H1581   1.085       .  S
C1575      C1576   1.393       .  A
C1575      H1582   1.084       .  S
C1576      C1577   1.405       .  A
C1576      H1583   1.084       .  S
C1577      C1578   1.400       .  A
C1578      H1584   1.085       .  S
C1585      C1586   1.406       .  A
C1585      C1590   1.404       .  A
C1586      C1587   1.398       .  A
C1586      H1595   1.083       .  S
C1587      C1588   1.402       .  A
C1587      H1596   1.084       .  S
C1588      C1594   1.407       .  A
C1588      C1589   1.416       .  A
C1589      C1591   1.400       .  A
C1589      C1590   1.406       .  A
C1590      H1597   1.084       .  S
C1591      C1592   1.396       .  A
C1591      H1598   1.084       .  S
C1592      C1593   1.406       .  A
C1592      H1599   1.083       .  S
C1593      C1594   1.405       .  A
C1594      H1600   1.084       .  S
C1601      C1602   1.408       .  A
C1601      C1606   1.401       .  A
C1602      C1603   1.407       .  A
C1602      H1611   1.083       .  S
C1603      C1604   1.407   1_565  A
C1603      H1612   1.083       .  S
C1604      C1610   1.416       .  A
C1604      C1605   1.414   1_545  A
C1605      C1607   1.393   1_565  A
C1605      C1606   1.396       .  A
C1606      H1613   1.085       .  S
C1607      C1608   1.385       .  A
C1607      H1614   1.084       .  S
C1608      C1609   1.410       .  A
C1608      H1615   1.083       .  S
C1609      C1610   1.412       .  A
C1610      H1616   1.084       .  S
C1617      C1618   1.407       .  A
C1617      C1622   1.410       .  A
C1618      C1619   1.405       .  A
C1618      H1627   1.083       .  S
C1619      C1620   1.406       .  A
C1619      H1628   1.083       .  S
C1620      C1626   1.416       .  A
C1620      C1621   1.414       .  A
C1621      C1623   1.403       .  A
C1621      C1622   1.412       .  A
C1622      H1629   1.084       .  S
C1623      C1624   1.401       .  A
C1623      H1630   1.084       .  S
C1624      C1625   1.406       .  A
C1624      H1631   1.084       .  S
C1625      C1626   1.412       .  A
C1626      H1632   1.084       .  S
C1633      C1634   1.403       .  A
C1633      C1638   1.403       .  A
C1634      C1635   1.393       .  A
C1634      H1643   1.084       .  S
C1635      C1636   1.400       .  A
C1635      H1644   1.084       .  S
C1636      C1642   1.398       .  A
C1636      C1637   1.416       .  A
C1637      C1639   1.403       .  A
C1637      C1638   1.402       .  A
C1638      H1645   1.085       .  S
C1639      C1640   1.397       .  A
C1639      H1646   1.084       .  S
C1640      C1641   1.403       .  A
C1640      H1647   1.083       .  S
C1641      C1642   1.399       .  A
C1642      H1648   1.085       .  S
C1649      C1650   1.402       .  A
C1649      C1654   1.401       .  A
C1650      C1651   1.395       .  A
C1650      H1659   1.084       .  S
C1651      C1652   1.401       .  A
C1651      H1660   1.084       .  S
C1652      C1658   1.401       .  A
C1652      C1653   1.416       .  A
C1653      C1655   1.401       .  A
C1653      C1654   1.402       .  A
C1654      H1661   1.085       .  S
C1655      C1656   1.396       .  A
C1655      H1662   1.084       .  S
C1656      C1657   1.404       .  A
C1656      H1663   1.083       .  S
C1657      C1658   1.402       .  A
C1658      H1664   1.085       .  S
C1665      C1666   1.406       .  A
C1665      C1670   1.401       .  A
C1666      C1667   1.395       .  A
C1666      H1675   1.084       .  S
C1667      C1668   1.400       .  A
C1667      H1676   1.084       .  S
C1668      C1674   1.403       .  A
C1668      C1669   1.417       .  A
C1669      C1671   1.399       .  A
C1669      C1670   1.401       .  A
C1670      H1677   1.085       .  S
C1671      C1672   1.393       .  A
C1671      H1678   1.084       .  S
C1672      C1673   1.405       .  A
C1672      H1679   1.084       .  S
C1673      C1674   1.402       .  A
C1674      H1680   1.085       .  S
