geometry optimzed in LAMMPS
_audit_creation_date              2020-12-01 
_audit_creation_method            'lammps2cif' 
_symmetry_space_group_name_H-M    'P1' 
_symmetry_Int_Tables_number       1 
_symmetry_cell_setting            triclinic 
loop_ 
_symmetry_equiv_pos_as_xyz 
  x,y,z 
_cell_length_a                    51.32730068 
_cell_length_b                    51.41949315739009 
_cell_length_c                    27.049369298041228 
_cell_angle_alpha                 89.97792879477478 
_cell_angle_beta                  90.02525239647312 
_cell_angle_gamma                 89.95089115467816 
loop_ 
_atom_site_label 
_atom_site_type_symbol 
_atom_site_fract_x 
_atom_site_fract_y 
_atom_site_fract_z 
_atom_site_charge 
O1          O  0.49387251  0.92759337  0.26730917    -0.85600
O2          O  0.47091789  0.94453110  0.18318185    -0.82700
C3          C  0.45510003  0.95299207  0.15173996     0.97800
O4          O  0.43108706  0.95513576  0.16292376    -0.82700
O5          O  0.41455574  0.90542129  0.18671713    -0.85400
C6          C  0.41289517  0.88395604  0.20888155     1.02300
O7          O  0.41963021  0.88193061  0.25405031    -0.78100
O8          O  0.47138969  0.89207371  0.25921838    -0.78300
C9          C  0.49230757  0.90421336  0.25312648     1.02300
O10         O  0.46283846  0.96489574  0.32089623    -0.85600
O11         O  0.44486851  0.98604541  0.23369439    -0.82700
C12         C  0.42084650  0.99089303  0.23989676     0.97800
O13         O  0.40575779  0.97290737  0.25282070    -0.82700
O14         O  0.38650711  0.92346003  0.27093280    -0.85300
C15         C  0.38905388  0.91747259  0.31626682     1.02300
O16         O  0.41128209  0.91663568  0.33603255    -0.78200
O17         O  0.46431956  0.92489778  0.34912018    -0.78300
C18         C  0.46710682  0.94939554  0.35595894     1.02300
Cr19       Cr  0.46623284  0.95432973  0.25209774     1.93700
Cr20       Cr  0.41144643  0.93883951  0.22116245     1.93200
Cr21       Cr  0.44176378  0.90584610  0.29716120     1.39100
O22         O  0.43950470  0.93303341  0.25733567    -1.23400
O23         O  0.99953530  0.06149502  0.76145905    -0.85600
O24         O  0.02354615  0.04547373  0.67779768    -0.82700
C25         C  0.04023249  0.03811335  0.64697608     0.97800
O26         O  0.06386900  0.03482130  0.66040229    -0.82700
O27         O  0.08135205  0.08291227  0.68932089    -0.85400
C28         C  0.08248080  0.10421362  0.71197126     1.02300
O29         O  0.07450163  0.10606144  0.75629984    -0.78100
O30         O  0.02244436  0.09673676  0.75492758    -0.78300
C31         C  0.00146258  0.08490273  0.74752927     1.02300
O32         O  0.02894414  0.02290720  0.81502074    -0.85600
O33         O  0.04763677  0.00251613  0.72738730    -0.82700
C34         C  0.07127097  0.99663412  0.73539156     0.97800
O35         O  0.08662756  0.01388848  0.75084619    -0.82700
O36         O  0.10675368  0.06283341  0.77581864    -0.85300
C37         C  0.10256795  0.06907500  0.82072753     1.02300
O38         O  0.07970571  0.07032998  0.83733203    -0.78200
O39         O  0.02685767  0.06274822  0.84410334    -0.78300
C40         C  0.02443613  0.03819843  0.85032606     1.02300
Cr41       Cr  0.02681703  0.03446434  0.74650644     1.93700
Cr42       Cr  0.08269618  0.04899061  0.72182333     1.93200
Cr43       Cr  0.05081344  0.08202937  0.79550284     1.39100
O44         O  0.05381039  0.05510312  0.75513669    -1.23400
O45         O  0.18394969  0.75145323  0.50293605    -0.85600
O46         O  0.19571638  0.77538359  0.41811044    -0.82700
C47         C  0.19837987  0.79194841  0.38458754     0.97800
O48         O  0.19729904  0.81598535  0.39475496    -0.82700
O49         O  0.14673708  0.82130009  0.42488314    -0.85400
C50         C  0.12649965  0.82297980  0.45048893     1.02300
O51         O  0.12755603  0.81907584  0.49688382    -0.78100
O52         O  0.14495286  0.76871555  0.50282364    -0.78300
C53         C  0.15966883  0.74958909  0.49506022     1.02300
O54         O  0.21786913  0.78735905  0.55472696    -0.85600
O55         O  0.23332171  0.80895554  0.46576189    -0.82700
C56         C  0.23366252  0.83363934  0.46830493     0.97800
O57         O  0.21320310  0.84616610  0.47812994    -0.82700
O58         O  0.16164146  0.85604753  0.50457967    -0.85300
C59         C  0.15975733  0.85397506  0.55140651     1.02300
O60         O  0.16495843  0.83272120  0.57237027    -0.78200
O61         O  0.17891565  0.78075262  0.58536281    -0.78300
C62         C  0.20361257  0.78045002  0.59022687     1.02300
Cr63       Cr  0.20608492  0.78256641  0.48622394     1.93700
Cr64       Cr  0.17976192  0.83301831  0.45366007     1.93200
Cr65       Cr  0.15592899  0.80052007  0.53665216     1.39100
O66         O  0.18094638  0.80562653  0.49288688    -1.23400
O67         O  0.96893804  0.89658857  0.24987736    -0.85600
O68         O  0.91836511  0.88122142  0.26347688    -0.82700
C69         C  0.91367614  0.88224926  0.30982371     0.97800
O70         O  0.91599425  0.90346297  0.33253984    -0.82700
O71         O  0.92445920  0.95532664  0.35494498    -0.85400
C72         C  0.94875005  0.95573444  0.36431086     1.02300
O73         O  0.96472347  0.94996131  0.33113093    -0.78100
O74         O  0.98718977  0.93499639  0.24607691    -0.78300
C75         C  0.98863169  0.91080764  0.25499662     1.02300
O76         O  0.95545274  0.92899198  0.16512745    -0.85600
O77         O  0.90383898  0.91653482  0.18411476    -0.82700
C78         C  0.88290775  0.91215865  0.20671695     0.97800
O79         O  0.88149007  0.91597407  0.25307106    -0.82700
O80         O  0.89397939  0.96806243  0.26820904    -0.85300
C81         C  0.90692153  0.98843522  0.27588139     1.02300
O82         O  0.93153191  0.98714816  0.28076958    -0.78200
O83         O  0.95070370  0.96852789  0.19388916    -0.78300
C84         C  0.95587168  0.95358220  0.15858101     1.02300
Cr85       Cr  0.93654301  0.90768937  0.21819191     1.93700
Cr86       Cr  0.90583230  0.93566372  0.29928745     1.93200
Cr87       Cr  0.95684187  0.95847133  0.26243728     1.39100
O88         O  0.93302510  0.93394934  0.25966684    -1.23400
O89         O  0.84613752  0.22062564  0.49677249    -0.85600
O90         O  0.85838705  0.16964599  0.50317390    -0.82700
C91         C  0.85733825  0.16431470  0.54901126     0.97800
O92         O  0.83615922  0.16617581  0.57214971    -0.82700
O93         O  0.78609764  0.17992467  0.59772766    -0.85400
C94         C  0.78739059  0.20405884  0.60794347     1.02300
O95         O  0.79342158  0.22009630  0.57498171    -0.78100
O96         O  0.80966170  0.24194839  0.48985580    -0.78300
C97         C  0.83324509  0.24099355  0.50367673     1.02300
O98         O  0.81293672  0.21169372  0.40922987    -0.85600
O99         O  0.82240301  0.15934034  0.42409858    -0.82700
C100        C  0.82328861  0.13746655  0.44490742     0.97800
O101        O  0.81846089  0.13510134  0.49077113    -0.82700
O102        O  0.76809509  0.15200114  0.51096172    -0.85300
C103        C  0.74937873  0.16666160  0.52218090     1.02300
O104        O  0.75316326  0.19098176  0.52638152    -0.78200
O105        O  0.77302385  0.20858491  0.43748542    -0.78300
C106        C  0.78836607  0.21303965  0.40223498     1.02300
Cr107      Cr  0.83300376  0.19038703  0.46080682     1.93700
Cr108      Cr  0.80244429  0.16019465  0.53996644     1.93200
Cr109      Cr  0.78378773  0.21356807  0.50628168     1.39100
O110        O  0.80631162  0.18777090  0.50191606    -1.23400
O111        O  0.14805663  0.26733939  0.50241596    -0.85600
O112        O  0.13685239  0.31890775  0.50767953    -0.82700
C113        C  0.13806201  0.32484150  0.55321396     0.97800
O114        O  0.15911024  0.32313116  0.57664943    -0.82700
O115        O  0.20851038  0.30785097  0.60244342    -0.85400
C116        C  0.20629209  0.28382080  0.61304435     1.02300
O117        O  0.19971574  0.26786521  0.58041727    -0.78100
O118        O  0.18428448  0.24576616  0.49523976    -0.78300
C119        C  0.16072675  0.24675223  0.50905426     1.02300
O120        O  0.18176751  0.27575457  0.41502876    -0.85600
O121        O  0.17271986  0.32822184  0.42826353    -0.82700
C122        C  0.17288450  0.35040172  0.44810640     0.97800
O123        O  0.17759440  0.35284414  0.49403991    -0.82700
O124        O  0.22703939  0.33446388  0.51426387    -0.85300
C125        C  0.24547349  0.31989610  0.52717681     1.02300
O126        O  0.24132574  0.29575013  0.53308638    -0.78200
O127        O  0.22164055  0.27832178  0.44405258    -0.78300
C128        C  0.20638061  0.27427159  0.40850340     1.02300
Cr129      Cr  0.16170382  0.29745048  0.46585387     1.93700
Cr130      Cr  0.19279334  0.32767531  0.54407471     1.93200
Cr131      Cr  0.21032837  0.27374662  0.51233488     1.39100
O132        O  0.18829680  0.29989665  0.50699840    -1.23400
O133        O  0.02051784  0.58825757  0.25303754    -0.85600
O134        O  0.07020492  0.60811731  0.25768434    -0.82700
C135        C  0.07503453  0.60872554  0.30361133     0.97800
O136        O  0.07466948  0.58821812  0.32863350    -0.82700
O137        O  0.07246227  0.53687178  0.35673907    -0.85400
C138        C  0.04862560  0.53376758  0.36726995     1.02300
O139        O  0.03156404  0.53553011  0.33435101    -0.78100
O140        O  0.00558361  0.54832004  0.25239223    -0.78300
C141        C  0.00228038  0.57242293  0.26075265     1.02300
O142        O  0.03388000  0.55687657  0.16800061    -0.85600
O143        O  0.08525123  0.57337778  0.18042844    -0.82700
C144        C  0.10662148  0.57876532  0.20101851     0.97800
O145        O  0.10939325  0.57607726  0.24751188    -0.82700
O146        O  0.10289636  0.52394204  0.27192975    -0.85300
C147        C  0.09159280  0.50270499  0.28063600     1.02300
O148        O  0.06685355  0.50156159  0.28234684    -0.78200
O149        O  0.04328310  0.51791148  0.19530999    -0.78300
C150        C  0.03535627  0.53247382  0.16101889     1.02300
Cr151      Cr  0.05281375  0.57967976  0.21762926     1.93700
Cr152      Cr  0.08782618  0.55620563  0.29812124     1.93200
Cr153      Cr  0.03852747  0.52761662  0.26510593     1.39100
O154        O  0.05997554  0.55420517  0.25968964    -1.23400
O155        O  0.99641504  0.42824480  0.76553728    -0.85600
O156        O  0.97448776  0.44331330  0.67944307    -0.82700
C157        C  0.95860741  0.45018148  0.64678389     0.97800
O158        O  0.93452329  0.45234819  0.65716064    -0.82700
O159        O  0.92020097  0.40291742  0.68093574    -0.85400
C160        C  0.91792963  0.38152178  0.70284202     1.02300
O161        O  0.92376342  0.37961782  0.74852776    -0.78100
O162        O  0.97553907  0.39164873  0.75790823    -0.78300
C163        C  0.99623476  0.40444261  0.75358387     1.02300
O164        O  0.96288859  0.46472368  0.81580690    -0.85600
O165        O  0.94578568  0.48455334  0.72688916    -0.82700
C166        C  0.92153656  0.48834863  0.73271844     0.97800
O167        O  0.90724512  0.46965614  0.74523054    -0.82700
O168        O  0.88900615  0.41998021  0.76288319    -0.85300
C169        C  0.89118013  0.41471821  0.80859417     1.02300
O170        O  0.91314211  0.41468114  0.82925552    -0.78200
O171        O  0.96528963  0.42483176  0.84474541    -0.78300
C172        C  0.96693504  0.44942859  0.85127793     1.02300
Cr173      Cr  0.96805565  0.45371093  0.74763184     1.93700
Cr174      Cr  0.91456504  0.43594522  0.71441538     1.93200
Cr175      Cr  0.94450719  0.40456791  0.79255054     1.39100
O176        O  0.94212667  0.43140328  0.75204980    -1.23400
O177        O  0.34641963  0.72160446  0.99563929    -0.85600
O178        O  0.35726107  0.66991068  0.00313719    -0.82700
C179        C  0.35578521  0.66452282  0.04901544     0.97800
O180        O  0.33470222  0.66758023  0.07193063    -0.82700
O181        O  0.28457738  0.68128599  0.09598404    -0.85400
C182        C  0.28654943  0.70526542  0.10645026     1.02300
O183        O  0.29402022  0.72103100  0.07422058    -0.78100
O184        O  0.31013058  0.74323057  0.98976618    -0.78300
C185        C  0.33378788  0.74217177  0.00313149     1.02300
O186        O  0.31269391  0.71258791  0.90798348    -0.85600
O187        O  0.32095721  0.65997743  0.92344739    -0.82700
C188        C  0.32231932  0.63838142  0.94523123     0.97800
O189        O  0.31779279  0.63662585  0.99118557    -0.82700
O190        O  0.26731260  0.65404424  0.00887757    -0.85300
C191        C  0.24856635  0.66882808  0.01953859     1.02300
O192        O  0.25262282  0.69307111  0.02490575    -0.78200
O193        O  0.27284525  0.71102127  0.93716411    -0.78300
C194        C  0.28810575  0.71453523  0.90142959     1.02300
Cr195      Cr  0.33246480  0.69116003  0.95993485     1.93700
Cr196      Cr  0.30135059  0.66172613  0.03907306     1.93200
Cr197      Cr  0.28382978  0.71529903  0.00576452     1.39100
O198        O  0.30576688  0.68915408  0.00098035    -1.23400
O199        O  0.68352243  0.25568700  0.01261795    -0.85600
O200        O  0.69739291  0.27681694  0.92636832    -0.82700
C201        C  0.70226442  0.29228162  0.89192915     0.97800
O202        O  0.70101287  0.31662499  0.89956746    -0.82700
O203        O  0.64962265  0.32439768  0.92753404    -0.85400
C204        C  0.62927502  0.32672756  0.95288438     1.02300
O205        O  0.63007730  0.32435794  0.99957770    -0.78100
O206        O  0.64505480  0.27390996  0.01015844    -0.78300
C207        C  0.65930986  0.25438045  0.00305047     1.02300
O208        O  0.71843449  0.29212570  0.06223051    -0.85600
O209        O  0.73549135  0.31066593  0.97227726    -0.82700
C210        C  0.73670276  0.33540367  0.97315728     0.97800
O211        O  0.71644679  0.34861618  0.98111664    -0.82700
O212        O  0.66496656  0.36063951  0.00415857    -0.85300
C213        C  0.66299253  0.35987281  0.05113032     1.02300
O214        O  0.66747327  0.33900123  0.07409381    -0.78200
O215        O  0.67925770  0.28687267  0.09247137    -0.78300
C216        C  0.70388652  0.28639765  0.09797185     1.02300
Cr217      Cr  0.70714775  0.28555434  0.99405507     1.93700
Cr218      Cr  0.68289966  0.33578190  0.95611881     1.93200
Cr219      Cr  0.65733506  0.30615202  0.04149386     1.39100
O220        O  0.68271836  0.30938379  0.99773358    -1.23400
O221        O  0.46671482  0.39430422  0.75024033    -0.85600
O222        O  0.41526073  0.38238208  0.76040532    -0.82700
C223        C  0.41131028  0.38166915  0.80679829     0.97800
O224        O  0.41391486  0.40179024  0.83279837    -0.82700
O225        O  0.42682691  0.45194677  0.86104028    -0.85400
C226        C  0.45113918  0.45066261  0.86988100     1.02300
O227        O  0.46662410  0.44455732  0.83603163    -0.78100
O228        O  0.48700944  0.43150379  0.74745070    -0.78300
C229        C  0.48705584  0.40740867  0.75690976     1.02300
O230        O  0.45549815  0.43032441  0.66894645    -0.85600
O231        O  0.40325887  0.42112305  0.68631669    -0.82700
C232        C  0.38210213  0.41747317  0.70864599     0.97800
O233        O  0.38085348  0.42018124  0.75528971    -0.82700
O234        O  0.39728084  0.47075117  0.77737066    -0.85300
C235        C  0.41217045  0.48951580  0.78728616     1.02300
O236        O  0.43646142  0.48578313  0.79212720    -0.78200
O237        O  0.45301113  0.46918046  0.70184465    -0.78300
C238        C  0.45708062  0.45498197  0.66488952     1.02300
Cr239      Cr  0.43521705  0.40875285  0.71911606     1.93700
Cr240      Cr  0.40649297  0.43609885  0.80373458     1.93200
Cr241      Cr  0.45901621  0.45624408  0.76878495     1.39100
O242        O  0.43343434  0.43373217  0.76362920    -1.23400
O243        O  0.30658320  0.23483734  0.00667217    -0.85600
O244        O  0.29169711  0.20943557  0.92584552    -0.82700
C245        C  0.28738566  0.19240178  0.89393986     0.97800
O246        O  0.28735304  0.16851650  0.90585763    -0.82700
O247        O  0.33873904  0.16029989  0.93005347    -0.85400
C248        C  0.36003642  0.16002961  0.95299478     1.02300
O249        O  0.36100167  0.16623316  0.99846424    -0.78100
O250        O  0.34503981  0.21670613  0.00271555    -0.78300
C251        C  0.33052949  0.23600888  0.99531994     1.02300
O252        O  0.27382881  0.20018060  0.06429143    -0.85600
O253        O  0.25422352  0.17817662  0.97926768    -0.82700
C254        C  0.25305721  0.15372394  0.98593928     0.97800
O255        O  0.27349151  0.14122348  0.99565214    -0.82700
O256        O  0.32517555  0.12954251  0.01391808    -0.85300
C257        C  0.32926314  0.13258814  0.05983691     1.02300
O258        O  0.32636279  0.15454346  0.07978803    -0.78200
O259        O  0.31363716  0.20697785  0.09053857    -0.78300
C260        C  0.28911829  0.20735752  0.09790330     1.02300
Cr261      Cr  0.28319940  0.20391367  0.99484888     1.93700
Cr262      Cr  0.30623029  0.15188716  0.96415027     1.93200
Cr263      Cr  0.33455740  0.18586556  0.04040046     1.39100
O264        O  0.30793610  0.18038649  0.00023122    -1.23400
O265        O  0.52719746  0.09627216  0.75203273    -0.85600
O266        O  0.57852642  0.10823584  0.75991756    -0.82700
C267        C  0.58214590  0.10909786  0.80650895     0.97800
O268        O  0.58003487  0.08883774  0.83219971    -0.82700
O269        O  0.56766098  0.03911404  0.86179039    -0.85400
C270        C  0.54348132  0.04075542  0.87146904     1.02300
O271        O  0.52771418  0.04647681  0.83775614    -0.78100
O272        O  0.50636638  0.05944648  0.74977238    -0.78300
C273        C  0.50682362  0.08345052  0.75999913     1.02300
O274        O  0.53694661  0.05989698  0.66960220    -0.85600
O275        O  0.58974095  0.06911373  0.68513995    -0.82700
C276        C  0.61117627  0.07236084  0.70688393     0.97800
O277        O  0.61264385  0.06999827  0.75362865    -0.82700
O278        O  0.59630589  0.01957336  0.77774336    -0.85300
C279        C  0.58141296  0.00111491  0.78955966     1.02300
O280        O  0.55707488  0.00489384  0.79370144    -0.78200
O281        O  0.53903905  0.02107202  0.70294096    -0.78300
C282        C  0.53447634  0.03522061  0.66597815     1.02300
Cr283      Cr  0.55808879  0.08161479  0.71919013     1.93700
Cr284      Cr  0.58738648  0.05447048  0.80330694     1.93200
Cr285      Cr  0.53437132  0.03441983  0.77029090     1.39100
O286        O  0.56017294  0.05664392  0.76372738    -1.23400
O287        O  0.64449774  0.76738545  0.99829005    -0.85600
O288        O  0.63423715  0.81899918  0.00896708    -0.82700
C289        C  0.63584968  0.82352187  0.05516384     0.97800
O290        O  0.65703331  0.82002318  0.07761404    -0.82700
O291        O  0.70704163  0.80442018  0.10001319    -0.85400
C292        C  0.70533284  0.78012428  0.10822121     1.02300
O293        O  0.69733377  0.76525493  0.07494467    -0.78100
O294        O  0.68029976  0.74526626  0.98930045    -0.78300
C295        C  0.65678934  0.74643405  0.00358669     1.02300
O296        O  0.67766452  0.77717063  0.91046855    -0.85600
O297        O  0.67007013  0.82992710  0.92917253    -0.82700
C298        C  0.66934242  0.85120060  0.95227818     0.97800
O299        O  0.67434167  0.85201194  0.99826934    -0.82700
O300        O  0.72475889  0.83331840  0.01488716    -0.85300
C301        C  0.74308484  0.81798208  0.02542442     1.02300
O302        O  0.73866554  0.79370979  0.02806699    -0.78200
O303        O  0.71777935  0.77837127  0.93842208    -0.78300
C304        C  0.70218264  0.77505288  0.90310938     1.02300
Cr305      Cr  0.65852964  0.79818745  0.96406489     1.93700
Cr306      Cr  0.69048645  0.82567190  0.04463918     1.93200
Cr307      Cr  0.70712134  0.77252449  0.00692962     1.39100
O308        O  0.68548744  0.79907588  0.00470171    -1.23400
O309        O  0.80699244  0.73385186  0.50796412    -0.85600
O310        O  0.79306235  0.70954541  0.42464815    -0.82700
C311        C  0.79012797  0.69295421  0.39126247     0.97800
O312        O  0.79119406  0.66891183  0.40137309    -0.82700
O313        O  0.84236333  0.66271538  0.42861739    -0.85400
C314        C  0.86299208  0.66101095  0.45329327     1.02300
O315        O  0.86263626  0.66557895  0.49948672    -0.78100
O316        O  0.84554744  0.71603785  0.50308367    -0.78300
C317        C  0.83079229  0.73511174  0.49531907     1.02300
O318        O  0.77355811  0.69757608  0.56232648    -0.85600
O319        O  0.75617439  0.67634662  0.47463021    -0.82700
C320        C  0.75573947  0.65165742  0.47767328     0.97800
O321        O  0.77634031  0.63919696  0.48645705    -0.82700
O322        O  0.82779135  0.62907288  0.50969045    -0.85300
C323        C  0.83085859  0.63158535  0.55609153     1.02300
O324        O  0.82682013  0.65307645  0.57715250    -0.78200
O325        O  0.81288686  0.70514296  0.59012393    -0.78300
C326        C  0.78826755  0.70457599  0.59701581     1.02300
Cr327      Cr  0.78405064  0.70262539  0.49321466     1.93700
Cr328      Cr  0.80941861  0.65188492  0.45950800     1.93200
Cr329      Cr  0.83510188  0.68487707  0.54001623     1.39100
O330        O  0.80920164  0.67946324  0.49826643    -1.23400
O331        O  0.49666072  0.56055976  0.26404087    -0.85600
O332        O  0.52191147  0.54354070  0.18148056    -0.82700
C333        C  0.53894928  0.53592730  0.15142343     0.97800
O334        O  0.56239599  0.53281860  0.16548687    -0.82700
O335        O  0.57882537  0.58151641  0.18887834    -0.85400
C336        C  0.57862511  0.60365114  0.20847577     1.02300
O337        O  0.57065839  0.60669254  0.25273473    -0.78100
O338        O  0.51903223  0.59610637  0.25612892    -0.78300
C339        C  0.49813905  0.58394615  0.24994951     1.02300
O340        O  0.52700997  0.52398129  0.32009751    -0.85600
O341        O  0.54636168  0.50220281  0.23435992    -0.82700
C342        C  0.57015289  0.49709947  0.24251496     0.97800
O343        O  0.58479924  0.51480526  0.25828782    -0.82700
O344        O  0.60447252  0.56402702  0.27667778    -0.85300
C345        C  0.60068151  0.57081603  0.32118977     1.02300
O346        O  0.57795606  0.57324983  0.33799460    -0.78200
O347        O  0.52543065  0.56421009  0.34754032    -0.78300
C348        C  0.52293055  0.53972432  0.35486023     1.02300
Cr349      Cr  0.52486803  0.53404146  0.25099816     1.93700
Cr350      Cr  0.58057391  0.54874154  0.22517384     1.93200
Cr351      Cr  0.54828209  0.58306510  0.29612706     1.39100
O352        O  0.55153116  0.55533566  0.25794913    -1.23400
C353        C  0.63815558  0.63272796  0.43943813    -0.18100
C354        C  0.65992981  0.64483218  0.46034696    -0.20300
C355        C  0.68498148  0.63469716  0.45261654     0.20400
C356        C  0.68803988  0.61185846  0.42409712    -0.03200
C357        C  0.66614456  0.60006117  0.40184018    -0.06300
C358        C  0.64111272  0.61058329  0.40961732     0.20600
C359        C  0.66941059  0.57829897  0.37051850     0.18800
C360        C  0.69439623  0.56784352  0.36357138    -0.17800
C361        C  0.71600793  0.57910539  0.38670791    -0.20000
C362        C  0.71305734  0.60128557  0.41648460     0.20300
C363        C  0.73478760  0.61360637  0.43732247    -0.33000
C364        C  0.73204935  0.63700946  0.46389869     0.01000
C365        C  0.70706981  0.64738521  0.47165035    -0.24300
C366        C  0.61960142  0.59945408  0.38581127    -0.28900
C367        C  0.62288414  0.57871958  0.35244584     0.06700
C368        C  0.64778359  0.56798707  0.34542276    -0.27600
H369        H  0.61904234  0.64107801  0.44559747     0.11400
H370        H  0.65719174  0.66226931  0.48221804     0.12500
H371        H  0.69726573  0.55112135  0.33982000     0.11600
H372        H  0.73513356  0.57081304  0.38038680     0.10800
H373        H  0.75406284  0.60576231  0.43038538     0.16200
H374        H  0.70490551  0.66546757  0.49184136     0.12100
H375        H  0.60047669  0.60802886  0.39085055     0.15000
H376        H  0.65035822  0.55200605  0.31973877     0.14800
C377        C  0.64382652  0.63464957  0.08873773    -0.18100
C378        C  0.65487257  0.65432804  0.05977201    -0.20300
C379        C  0.64392666  0.67934303  0.05908001     0.20400
C380        C  0.62146700  0.68444371  0.08777821    -0.03200
C381        C  0.61059110  0.66468462  0.11783572    -0.06300
C382        C  0.62186398  0.63970789  0.11816677     0.20600
C383        C  0.58859206  0.66996311  0.14774707     0.18800
C384        C  0.57729036  0.69481698  0.14612387    -0.17800
C385        C  0.58786954  0.71429104  0.11592186    -0.20000
C386        C  0.61004446  0.70934726  0.08690780     0.20300
C387        C  0.62118780  0.72897990  0.05762152    -0.33000
C388        C  0.64395873  0.72433009  0.02963897     0.01000
C389        C  0.65519669  0.69936918  0.03066229    -0.24300
C390        C  0.61110246  0.62023504  0.14810857    -0.28900
C391        C  0.58956111  0.62536251  0.17891360     0.06700
C392        C  0.57837827  0.65033010  0.17867065    -0.27600
H393        H  0.65266309  0.61550107  0.08853942     0.11400
H394        H  0.67201319  0.64997498  0.03792471     0.12500
H395        H  0.56031230  0.69924324  0.16838196     0.11600
H396        H  0.57882544  0.73333820  0.11561373     0.10800
H397        H  0.61251299  0.74821105  0.05790661     0.16200
H398        H  0.67278596  0.69558830  0.00969744     0.12100
H399        H  0.61977777  0.60099021  0.14798518     0.15000
H400        H  0.56150052  0.65425307  0.20157147     0.14800
C401        C  0.79198118  0.75355787  0.75539033    -0.18100
C402        C  0.77951622  0.76448806  0.79647869    -0.20300
C403        C  0.75267852  0.76089659  0.80397736     0.20400
C404        C  0.73818718  0.74627261  0.76962788    -0.03200
C405        C  0.75082604  0.73516734  0.72806831    -0.06300
C406        C  0.77786965  0.73881787  0.72092304     0.20600
C407        C  0.73640998  0.72045987  0.69371841     0.18800
C408        C  0.70954638  0.71687422  0.70129887    -0.17800
C409        C  0.69706311  0.72779004  0.74250836    -0.20000
C410        C  0.71116264  0.74254849  0.77702297     0.20300
C411        C  0.69890443  0.75310650  0.81928903    -0.33000
C412        C  0.71346368  0.76704896  0.85456384     0.01000
C413        C  0.74026569  0.77120468  0.84584214    -0.24300
C414        C  0.79027681  0.72800436  0.67919784    -0.28900
C415        C  0.77598052  0.71375378  0.64404226     0.06700
C416        C  0.74902541  0.70988439  0.65211086    -0.27600
H417        H  0.81270216  0.75664491  0.75058127     0.11400
H418        H  0.79093852  0.77566714  0.82260841     0.12500
H419        H  0.69814511  0.70560956  0.67527335     0.11600
H420        H  0.67636743  0.72459710  0.74746444     0.10800
H421        H  0.67836332  0.74959333  0.82567877     0.16200
H422        H  0.75174470  0.78201675  0.87247983     0.12100
H423        H  0.81090595  0.73129290  0.67342749     0.15000
H424        H  0.73767878  0.69891966  0.62551227     0.14800
C425        C  0.78193449  0.76763448  0.28207905    -0.18100
C426        C  0.76784691  0.78095275  0.24589882    -0.20300
C427        C  0.74884880  0.76799646  0.21802645     0.20400
C428        C  0.74426109  0.74122036  0.22617520    -0.03200
C429        C  0.75836577  0.72780747  0.26284137    -0.06300
C430        C  0.77705325  0.74122481  0.29116785     0.20600
C431        C  0.75318045  0.70124339  0.27224764     0.18800
C432        C  0.73463707  0.68812580  0.24347134    -0.17800
C433        C  0.72092174  0.70134531  0.20650944    -0.20000
C434        C  0.72534942  0.72793561  0.19818049     0.20300
C435        C  0.71138790  0.74142325  0.16197070    -0.33000
C436        C  0.71615399  0.76800903  0.15304176     0.01000
C437        C  0.73462577  0.78127110  0.18171353    -0.24300
C438        C  0.78952192  0.72841767  0.32995615    -0.28900
C439        C  0.78296299  0.70264680  0.34204595     0.06700
C440        C  0.76563353  0.68873137  0.31189702    -0.27600
H441        H  0.79625071  0.77813602  0.30371654     0.11400
H442        H  0.77163166  0.80144899  0.24005859     0.12500
H443        H  0.73046272  0.66776311  0.25004583     0.11600
H444        H  0.70658417  0.69086107  0.18488867     0.10800
H445        H  0.69730674  0.73097286  0.13962881     0.16200
H446        H  0.73877552  0.80157078  0.17428613     0.12100
H447        H  0.80308543  0.73911841  0.35303759     0.15000
H448        H  0.76041348  0.66892549  0.32144273     0.14800
C449        C  0.66114515  0.91088942  0.80882993    -0.18100
C450        C  0.64844533  0.93165778  0.78537952    -0.20300
C451        C  0.62702661  0.94385899  0.80785098     0.20400
C452        C  0.61825834  0.93490279  0.85433658    -0.03200
C453        C  0.63167747  0.91467812  0.87881737    -0.06300
C454        C  0.65309651  0.90240450  0.85576689     0.20600
C455        C  0.62361442  0.90674032  0.92635979     0.18800
C456        C  0.60171350  0.91832854  0.94823758    -0.17800
C457        C  0.58793979  0.93774740  0.92329379    -0.20000
C458        C  0.59623332  0.94634371  0.87670061     0.20300
C459        C  0.58324236  0.96663391  0.85269558    -0.33000
C460        C  0.59267064  0.97662033  0.80782937     0.01000
C461        C  0.61451680  0.96515913  0.78533831    -0.24300
C462        C  0.66588713  0.88178308  0.87998833    -0.28900
C463        C  0.65822561  0.87428101  0.92779377     0.06700
C464        C  0.63730841  0.88703909  0.95089445    -0.27600
H465        H  0.67749851  0.90168565  0.79052616     0.11400
H466        H  0.65534879  0.93814041  0.74959415     0.12500
H467        H  0.59511621  0.91222492  0.98447569     0.11600
H468        H  0.57092579  0.94622303  0.94062097     0.10800
H469        H  0.56662145  0.97572973  0.87043309     0.16200
H470        H  0.62184048  0.97297720  0.75081339     0.12100
H471        H  0.68177858  0.87165468  0.86193025     0.15000
H472        H  0.63092180  0.88073629  0.98720640     0.14800
C473        C  0.45089582  0.16512912  0.89083459    -0.18100
C474        C  0.47090903  0.15482611  0.86154235    -0.20300
C475        C  0.46759031  0.13098228  0.83697769     0.20400
C476        C  0.44395838  0.11731230  0.84215145    -0.03200
C477        C  0.42372250  0.12779134  0.87132480    -0.06300
C478        C  0.42716921  0.15183036  0.89590843     0.20600
C479        C  0.39996502  0.11425411  0.87559601     0.18800
C480        C  0.39678594  0.09020933  0.85186931    -0.17800
C481        C  0.41695865  0.07965815  0.82364074    -0.20000
C482        C  0.44052397  0.09311770  0.81826929     0.20300
C483        C  0.46077520  0.08262354  0.78986353    -0.33000
C484        C  0.48440626  0.09605166  0.78456545     0.01000
C485        C  0.48758454  0.12036884  0.80791071    -0.24300
C486        C  0.40669353  0.16220573  0.92446954    -0.28900
C487        C  0.38277741  0.14905857  0.92728626     0.06700
C488        C  0.37964936  0.12510975  0.90306919    -0.27600
H489        H  0.45392622  0.18357614  0.90930114     0.11400
H490        H  0.48901893  0.16549817  0.85816240     0.12500
H491        H  0.37865128  0.07956596  0.85509378     0.11600
H492        H  0.41407034  0.06102819  0.80576029     0.10800
H493        H  0.45828101  0.06378017  0.77253229     0.16200
H494        H  0.50594590  0.13066013  0.80486614     0.12100
H495        H  0.40900036  0.18075261  0.94300304     0.15000
H496        H  0.36120354  0.11490357  0.90568128     0.14800
C497        C  0.49130200  0.44975030  0.49432042    -0.18100
C498        C  0.50135626  0.46178664  0.45215994    -0.20300
C499        C  0.50316588  0.48899556  0.44948443     0.20400
C500        C  0.49498064  0.50432331  0.48962511    -0.03200
C501        C  0.48491504  0.49212759  0.53240282    -0.06300
C502        C  0.48300576  0.46470714  0.53464617     0.20600
C503        C  0.47684124  0.50733116  0.57286305     0.18800
C504        C  0.47889770  0.53456010  0.57025270    -0.17800
C505        C  0.48872123  0.54665593  0.52767690    -0.20000
C506        C  0.49677383  0.53175343  0.48693466     0.20300
C507        C  0.50631130  0.54368551  0.44344332    -0.33000
C508        C  0.51413623  0.52838644  0.40286098     0.01000
C509        C  0.51277481  0.50103209  0.40694743    -0.24300
C510        C  0.47316631  0.45265962  0.57731421    -0.28900
C511        C  0.46540970  0.46761818  0.61813662     0.06700
C512        C  0.46712009  0.49501454  0.61535262    -0.27600
H513        H  0.49006703  0.42872355  0.49541193     0.11400
H514        H  0.50761626  0.44978114  0.42145619     0.12500
H515        H  0.47285655  0.54653287  0.60115955     0.11600
H516        H  0.48996780  0.56767746  0.52659486     0.10800
H517        H  0.50730315  0.56469463  0.44097569     0.16200
H518        H  0.51887530  0.48880469  0.37642912     0.12100
H519        H  0.47205550  0.43162836  0.57907955     0.15000
H520        H  0.46123055  0.50684009  0.64658807     0.14800
C521        C  0.54088543  0.47247979  0.01531964    -0.18100
C522        C  0.52703316  0.45846647  0.97960581    -0.20300
C523        C  0.50146736  0.46566107  0.96700309     0.20400
C524        C  0.48983692  0.48732442  0.99011185    -0.03200
C525        C  0.50389477  0.50157525  0.02570344    -0.06300
C526        C  0.52937746  0.49384190  0.03911246     0.20600
C527        C  0.49225890  0.52334072  0.04839449     0.18800
C528        C  0.46699259  0.53097550  0.03496329    -0.17800
C529        C  0.45304853  0.51682855  0.99978656    -0.20000
C530        C  0.46421424  0.49491031  0.97738548     0.20300
C531        C  0.45053325  0.48103781  0.94118692    -0.33000
C532        C  0.46240569  0.46016350  0.91655079     0.01000
C533        C  0.48766205  0.45221869  0.93036359    -0.24300
C534        C  0.54233752  0.50692305  0.07751387    -0.28900
C535        C  0.52992915  0.52748132  0.10239784     0.06700
C536        C  0.50555221  0.53639992  0.08584766    -0.27600
H537        H  0.56056116  0.46655015  0.02444124     0.11400
H538        H  0.53633218  0.44202917  0.96177427     0.12500
H539        H  0.45786987  0.54768773  0.05218979     0.11600
H540        H  0.43352783  0.52304270  0.99006935     0.10800
H541        H  0.43137459  0.48762707  0.92976815     0.16200
H542        H  0.49701420  0.43630444  0.91090388     0.12100
H543        H  0.56110132  0.49992068  0.09030391     0.15000
H544        H  0.49605253  0.55245095  0.10465059     0.14800
C545        C  0.40780863  0.28607416  0.94515250    -0.18100
C546        C  0.41950272  0.30550871  0.91660557    -0.20300
C547        C  0.40428129  0.32175175  0.88654496     0.20400
C548        C  0.37698245  0.31810157  0.88474385    -0.03200
C549        C  0.36516594  0.29854698  0.91372110    -0.06300
C550        C  0.38069252  0.28257210  0.94418648     0.20600
C551        C  0.33786232  0.29502811  0.91229165     0.18800
C552        C  0.32269563  0.31090005  0.88133701    -0.17800
C553        C  0.33437470  0.33044214  0.85294331    -0.20000
C554        C  0.36143789  0.33432141  0.85475924     0.20300
C555        C  0.37316751  0.35454333  0.82812364    -0.33000
C556        C  0.40023628  0.35838509  0.83010359     0.01000
C557        C  0.41576114  0.34193632  0.85912893    -0.24300
C558        C  0.36891658  0.26310977  0.97265556    -0.28900
C559        C  0.34178527  0.25925809  0.97122413     0.06700
C560        C  0.32630947  0.27547821  0.94129618    -0.27600
H561        H  0.41998711  0.27382048  0.96817279     0.11400
H562        H  0.44044781  0.30796195  0.91833175     0.12500
H563        H  0.30177305  0.30830811  0.87931487     0.11600
H564        H  0.32221663  0.34263131  0.82975401     0.10800
H565        H  0.36108921  0.36801291  0.80756266     0.16200
H566        H  0.43658236  0.34531349  0.86131356     0.12100
H567        H  0.38099512  0.25052207  0.99526454     0.15000
H568        H  0.30547348  0.27221637  0.93908243     0.14800
C569        C  0.56320881  0.41450872  0.86531819    -0.18100
C570        C  0.58184118  0.40297083  0.89584828    -0.20300
C571        C  0.58419874  0.37582475  0.89785239     0.20400
C572        C  0.56757422  0.36002727  0.86921394    -0.03200
C573        C  0.54869188  0.37168850  0.83851881    -0.06300
C574        C  0.54663486  0.39905721  0.83645152     0.20600
C575        C  0.53176748  0.35600413  0.81026934     0.18800
C576        C  0.53417166  0.32881265  0.81241705    -0.17800
C577        C  0.55326650  0.31723126  0.84219814    -0.20000
C578        C  0.57004905  0.33264497  0.87081817     0.20300
C579        C  0.58958192  0.32132262  0.90031049    -0.33000
C580        C  0.60615576  0.33718246  0.92843244     0.01000
C581        C  0.60336056  0.36425361  0.92711056    -0.24300
C582        C  0.52759989  0.41054157  0.80656610    -0.28900
C583        C  0.51004193  0.39508449  0.77974052     0.06700
C584        C  0.51239641  0.36781488  0.78130152    -0.27600
H585        H  0.56168558  0.43552499  0.86443887     0.11400
H586        H  0.59448324  0.41528489  0.91778224     0.12500
H587        H  0.52129525  0.31649572  0.79099874     0.11600
H588        H  0.55486736  0.29622192  0.84293582     0.10800
H589        H  0.59233367  0.30041135  0.90051989     0.16200
H590        H  0.61705552  0.37639125  0.94696414     0.12100
H591        H  0.52556339  0.43153523  0.80633516     0.15000
H592        H  0.49873484  0.35579952  0.76099687     0.14800
C593        C  0.57284088  0.43302091  0.10890880    -0.18100
C594        C  0.58708364  0.41603163  0.07894451    -0.20300
C595        C  0.61231412  0.40830692  0.09261706     0.20400
C596        C  0.62330022  0.41776121  0.13692046    -0.03200
C597        C  0.60912957  0.43546250  0.16655224    -0.06300
C598        C  0.58379316  0.44307593  0.15238851     0.20600
C599        C  0.62040788  0.44575159  0.20993964     0.18800
C600        C  0.64540718  0.43749103  0.22416039    -0.17800
C601        C  0.65911803  0.41928131  0.19563287    -0.20000
C602        C  0.64833633  0.40940232  0.15175284     0.20300
C603        C  0.66188391  0.39103924  0.12282124    -0.33000
C604        C  0.65107025  0.38177961  0.07839093     0.01000
C605        C  0.62644278  0.39075072  0.06339909    -0.24300
C606        C  0.57014976  0.46128329  0.18094607    -0.28900
C607        C  0.58183153  0.47293955  0.22247247     0.06700
C608        C  0.60681957  0.46469332  0.23732826    -0.27600
H609        H  0.55330246  0.43848849  0.09787891     0.11400
H610        H  0.57827608  0.40876752  0.04525049     0.12500
H611        H  0.65437286  0.44511650  0.25739333     0.11600
H612        H  0.67827988  0.41309879  0.20768071     0.10800
H613        H  0.68065692  0.38376423  0.13495582     0.16200
H614        H  0.61758186  0.38283957  0.03041689     0.12100
H615        H  0.55113216  0.46780524  0.16857761     0.15000
H616        H  0.61604467  0.47372758  0.26902196     0.14800
C617        C  0.58210571  0.20395688  0.94867473    -0.18100
C618        C  0.57105246  0.18454221  0.91888504    -0.20300
C619        C  0.58691097  0.16844301  0.88961671     0.20400
C620        C  0.61422132  0.17194717  0.89073221    -0.03200
C621        C  0.62539176  0.19126747  0.92135383    -0.06300
C622        C  0.60925359  0.20748042  0.95018875     0.20600
C623        C  0.65271487  0.19447822  0.92272208     0.18800
C624        C  0.66858511  0.17849279  0.89342528    -0.17800
C625        C  0.65755800  0.15940727  0.86316185    -0.20000
C626        C  0.63045107  0.15596519  0.86159812     0.20300
C627        C  0.61938679  0.13643549  0.83216845    -0.33000
C628        C  0.59231778  0.13264467  0.83100261     0.01000
C629        C  0.57610090  0.14863064  0.85992507    -0.24300
C630        C  0.62054256  0.22725140  0.97909372    -0.28900
C631        C  0.64780679  0.23083204  0.98000639     0.06700
C632        C  0.66371908  0.21399508  0.95238148    -0.27600
H633        H  0.56939586  0.21623960  0.97054237     0.11400
H634        H  0.55007853  0.18216851  0.91863638     0.12500
H635        H  0.68956379  0.18081336  0.89377309     0.11600
H636        H  0.67026738  0.14729217  0.84095987     0.10800
H637        H  0.63197151  0.12335065  0.81183603     0.16200
H638        H  0.55525694  0.14521059  0.86017549     0.12100
H639        H  0.60806508  0.24028711  0.99988714     0.15000
H640        H  0.68463515  0.21691454  0.95195891     0.14800
C641        C  0.39833689  0.58240454  0.92617639    -0.18100
C642        C  0.41204323  0.56305491  0.90103557    -0.20300
C643        C  0.40061385  0.55020695  0.86079063     0.20400
C644        C  0.37545664  0.55738743  0.84467322    -0.03200
C645        C  0.36186591  0.57737195  0.86930680    -0.06300
C646        C  0.37321254  0.58949864  0.91083704     0.20600
C647        C  0.33680600  0.58492001  0.85295482     0.18800
C648        C  0.32558943  0.57222619  0.81224559    -0.17800
C649        C  0.33874546  0.55178258  0.78880237    -0.20000
C650        C  0.36356683  0.54405423  0.80502803     0.20300
C651        C  0.37627669  0.52257076  0.78385396    -0.33000
C652        C  0.40094899  0.51484636  0.80110499     0.01000
C653        C  0.41342387  0.52944257  0.83804462    -0.24300
C654        C  0.35925278  0.60855563  0.93631503    -0.28900
C655        C  0.33457326  0.61643525  0.91983220     0.06700
C656        C  0.32347316  0.60493035  0.87780633    -0.27600
H657        H  0.40733394  0.59173815  0.95778444     0.11400
H658        H  0.43132631  0.55769073  0.91382220     0.12500
H659        H  0.30642745  0.57777456  0.79913437     0.11600
H660        H  0.32939393  0.54184744  0.75826615     0.10800
H661        H  0.36665668  0.51133267  0.75528024     0.16200
H662        H  0.43232147  0.52338482  0.85186481     0.12100
H663        H  0.36792429  0.61791572  0.96828627     0.15000
H664        H  0.30451077  0.61134137  0.86500118     0.14800
C665        C  0.44973715  0.65459407  0.08922570    -0.18100
C666        C  0.46927714  0.64412961  0.11941651    -0.20300
C667        C  0.46306165  0.62626750  0.15689487     0.20400
C668        C  0.43694636  0.61880817  0.16411372    -0.03200
C669        C  0.41719502  0.62962020  0.13405162    -0.06300
C670        C  0.42359189  0.64758649  0.09629150     0.20600
C671        C  0.39104374  0.62253938  0.14198806     0.18800
C672        C  0.38482615  0.60449034  0.17911440    -0.17800
C673        C  0.40442668  0.59350742  0.20840247    -0.20000
C674        C  0.43056749  0.60049892  0.20124839     0.20300
C675        C  0.45046175  0.58930289  0.23008023    -0.33000
C676        C  0.47653311  0.59670438  0.22297622     0.01000
C677        C  0.48256981  0.61546922  0.18679269    -0.24300
C678        C  0.40369484  0.65851238  0.06696034    -0.28900
C679        C  0.37753550  0.65217949  0.07612476     0.06700
C680        C  0.37148355  0.63390398  0.11317545    -0.27600
H681        H  0.45506187  0.66833289  0.06058946     0.11400
H682        H  0.48930751  0.64994896  0.11332641     0.12500
H683        H  0.36476518  0.59887886  0.18554272     0.11600
H684        H  0.39912892  0.57956756  0.23670760     0.10800
H685        H  0.44571994  0.57485867  0.25785706     0.16200
H686        H  0.50269673  0.62100208  0.18063202     0.12100
H687        H  0.40842547  0.67250116  0.03835206     0.15000
H688        H  0.35134340  0.62854780  0.11974109     0.14800
C689        C  0.84136964  0.53612677  0.69364299    -0.18100
C690        C  0.82832092  0.55521756  0.66639421    -0.20300
C691        C  0.84238037  0.57356110  0.63890429     0.20400
C692        C  0.86994111  0.57267731  0.63897726    -0.03200
C693        C  0.88310515  0.55337244  0.66641855    -0.06300
C694        C  0.86869615  0.53501912  0.69375251     0.20600
C695        C  0.91060758  0.55209236  0.66563929     0.18800
C696        C  0.92469186  0.57043587  0.63803330    -0.17800
C697        C  0.91165782  0.58975220  0.61120167    -0.20000
C698        C  0.88432617  0.59093091  0.61129378     0.20300
C699        C  0.87108064  0.60999743  0.58415704    -0.33000
C700        C  0.84373776  0.61087459  0.58400067     0.01000
C701        C  0.82940671  0.59274590  0.61131862    -0.24300
C702        C  0.88176412  0.51522549  0.71919623    -0.28900
C703        C  0.90907469  0.51293963  0.71667263     0.06700
C704        C  0.92343818  0.53190137  0.69087417    -0.27600
H705        H  0.83005890  0.52202353  0.71424123     0.11400
H706        H  0.80721327  0.55557271  0.66667859     0.12500
H707        H  0.94578186  0.56969914  0.63682647     0.11600
H708        H  0.92294480  0.60363552  0.59001599     0.10800
H709        H  0.88200925  0.62434462  0.56337127     0.17800
H710        H  0.80830008  0.59367072  0.61115601     0.12100
H711        H  0.87045379  0.50068649  0.73872165     0.15000
H712        H  0.94444307  0.53017721  0.68818823     0.14800
C713        C  0.80091540  0.42255632  0.87297740    -0.18100
C714        C  0.77976598  0.41168455  0.89834716    -0.20300
C715        C  0.78143094  0.38649533  0.91828497     0.20400
C716        C  0.80483280  0.37235343  0.91364754    -0.03200
C717        C  0.82631181  0.38348366  0.88874617    -0.06300
C718        C  0.82422184  0.40855624  0.86753555     0.20600
C719        C  0.84970000  0.36929202  0.88424793     0.18800
C720        C  0.85145151  0.34419149  0.90439003    -0.17800
C721        C  0.83002967  0.33299716  0.92817435    -0.20000
C722        C  0.80658468  0.34682626  0.93275526     0.20300
C723        C  0.78464766  0.33525784  0.95465166    -0.33000
C724        C  0.76100923  0.34895635  0.95828592     0.01000
C725        C  0.75982576  0.37486233  0.94118052    -0.24300
C726        C  0.84535984  0.41896598  0.84085780    -0.28900
C727        C  0.86870897  0.40488759  0.83681474     0.06700
C728        C  0.87081920  0.38027008  0.85903589    -0.27600
H729        H  0.79896870  0.44185359  0.85729170     0.11400
H730        H  0.76191388  0.42281295  0.90158279     0.12500
H731        H  0.86929564  0.33305177  0.90110611     0.11600
H732        H  0.83173676  0.31341347  0.94263289     0.10800
H733        H  0.78575043  0.31531338  0.96750894     0.16200
H734        H  0.74164265  0.38554899  0.94319653     0.12100
H735        H  0.84379529  0.43797215  0.82374081     0.15000
H736        H  0.88879296  0.36932185  0.85537048     0.14800
C737        C  0.93626235  0.57133804  0.39328398    -0.18100
C738        C  0.91915424  0.58520409  0.42390313    -0.20300
C739        C  0.91197469  0.61085569  0.41222985     0.20400
C740        C  0.92185720  0.62249531  0.36887342    -0.03200
C741        C  0.93949313  0.60863894  0.33846223    -0.06300
C742        C  0.94696056  0.58301217  0.35099000     0.20600
C743        C  0.95001412  0.62062936  0.29604509     0.18800
C744        C  0.94204536  0.64587758  0.28325053    -0.17800
C745        C  0.92408355  0.65933361  0.31262760    -0.20000
C746        C  0.91405000  0.64794233  0.35575784     0.20300
C747        C  0.89589676  0.66127674  0.38534693    -0.33000
C748        C  0.88605629  0.64981375  0.42864222     0.01000
C749        C  0.89446202  0.62476771  0.44223262    -0.24300
C750        C  0.96577280  0.56998793  0.32219163    -0.28900
C751        C  0.97768086  0.58262157  0.28193165     0.06700
C752        C  0.96910628  0.60761756  0.26831320    -0.27600
H753        H  0.94135087  0.55153663  0.40294146     0.11400
H754        H  0.91145536  0.57581461  0.45665357     0.12500
H755        H  0.94986064  0.65531141  0.25065647     0.11600
H756        H  0.91822312  0.67877414  0.30184127     0.10800
H757        H  0.88887224  0.68028410  0.37413182     0.16200
H758        H  0.88605108  0.61546390  0.47442796     0.12100
H759        H  0.97255888  0.55088392  0.33332988     0.15000
H760        H  0.97822808  0.61742118  0.23733586     0.14800
C761        C  0.98436977  0.52751690  0.95244951    -0.18100
C762        C  0.99474822  0.53933230  0.99471373    -0.20300
C763        C  0.00552411  0.52416758  0.03274991     0.20400
C764        C  0.00579405  0.49679804  0.02799180    -0.03200
C765        C  0.99525069  0.48485132  0.98534431    -0.06300
C766        C  0.98456225  0.50032029  0.94744890     0.20600
C767        C  0.99553604  0.45746584  0.98055674     0.18800
C768        C  0.00627915  0.44232802  0.01861863    -0.17800
C769        C  0.01668025  0.45414378  0.06085657    -0.20000
C770        C  0.01655040  0.48132847  0.06586382     0.20300
C771        C  0.02675773  0.49324600  0.10832471    -0.33000
C772        C  0.02627080  0.52051442  0.11392320     0.01000
C773        C  0.01577056  0.53585040  0.07561249    -0.24300
C774        C  0.97458841  0.48837105  0.90489092    -0.28900
C775        C  0.97524851  0.46106160  0.89912793     0.06700
C776        C  0.98546367  0.44572720  0.93756526    -0.27600
H777        H  0.97624016  0.53968044  0.92356578     0.11400
H778        H  0.99433242  0.56034117  0.99765354     0.12500
H779        H  0.00671061  0.42132248  0.01567079     0.11600
H780        H  0.02484008  0.44197647  0.08969431     0.10800
H781        H  0.03472193  0.48114319  0.13747815     0.16200
H782        H  0.01519770  0.55682477  0.07943598     0.12100
H783        H  0.96669035  0.50051830  0.87572671     0.15000
H784        H  0.98618561  0.42477106  0.93352822     0.14800
C785        C  0.96334564  0.51842053  0.52139758    -0.18100
C786        C  0.97795775  0.53232186  0.48682402    -0.20300
C787        C  0.00239397  0.52315150  0.47151579     0.20400
C788        C  0.01275202  0.50026085  0.49242982    -0.03200
C789        C  0.99802370  0.48622751  0.52736521    -0.06300
C790        C  0.97308572  0.49524916  0.54154742     0.20600
C791        C  0.00830363  0.46330706  0.54830852     0.18800
C792        C  0.03317249  0.45462434  0.53426335    -0.17800
C793        C  0.04764658  0.46837506  0.49907579    -0.20000
C794        C  0.03754819  0.49111600  0.47764804     0.20300
C795        C  0.05111704  0.50415132  0.43993616    -0.33000
C796        C  0.03981867  0.52579130  0.41657662     0.01000
C797        C  0.01604941  0.53579164  0.43389419    -0.24300
C798        C  0.95880750  0.48157010  0.57719306    -0.28900
C799        C  0.96948907  0.45945468  0.59978020     0.06700
C800        C  0.99391643  0.45002343  0.58425818    -0.27600
H801        H  0.94447109  0.52585185  0.53251876     0.11400
H802        H  0.97009734  0.55019720  0.47185237     0.12500
H803        H  0.04139950  0.43715655  0.55040963     0.11600
H804        H  0.06661743  0.46108056  0.48825480     0.10800
H805        H  0.06925836  0.49621056  0.42596082     0.16200
H806        H  0.00732349  0.55242893  0.41554397     0.12100
H807        H  0.94032260  0.48925078  0.59004483     0.15000
H808        H  0.00231839  0.43309467  0.60216236     0.14800
C809        C  0.14990041  0.65959780  0.14835710    -0.18100
C810        C  0.16851727  0.67265025  0.11980198    -0.20300
C811        C  0.18507224  0.65878939  0.08798215     0.20400
C812        C  0.18219895  0.63156078  0.08365447    -0.03200
C813        C  0.16335074  0.61837221  0.11237720    -0.06300
C814        C  0.14744129  0.63243017  0.14546825     0.20600
C815        C  0.16083141  0.59105307  0.10875550     0.18800
C816        C  0.17691558  0.57729674  0.07597515    -0.17800
C817        C  0.19577272  0.59032253  0.04798654    -0.20000
C818        C  0.19880453  0.61737960  0.05205937     0.20300
C819        C  0.21904925  0.63024198  0.02716607    -0.33000
C820        C  0.22320149  0.65710576  0.03388345     0.01000
C821        C  0.20535786  0.67141443  0.06262058    -0.24300
C822        C  0.12948488  0.61904219  0.17524537    -0.28900
C823        C  0.12695541  0.59187075  0.17180698     0.06700
C824        C  0.14241118  0.57799156  0.13818041    -0.27600
H825        H  0.13768879  0.67070264  0.17326955     0.11400
H826        H  0.17039731  0.69356631  0.12354210     0.12500
H827        H  0.17520790  0.55637149  0.07257254     0.11600
H828        H  0.20833828  0.57914530  0.02382353     0.10800
H829        H  0.23257665  0.61901430  0.00499812     0.16200
H830        H  0.20838981  0.69208036  0.06831522     0.12100
H831        H  0.11714346  0.62975955  0.20062723     0.15000
H832        H  0.14015865  0.55708755  0.13519802     0.14800
C833        C  0.33340551  0.33747302  0.67764437    -0.18100
C834        C  0.31604117  0.32280182  0.64925431    -0.20300
C835        C  0.30320299  0.33405475  0.60872387     0.20400
C836        C  0.30831060  0.36022062  0.59608210    -0.03200
C837        C  0.32596478  0.37500244  0.62458063    -0.06300
C838        C  0.33829213  0.36359798  0.66581363     0.20600
C839        C  0.33118480  0.40118819  0.61199112     0.18800
C840        C  0.31862147  0.41228177  0.57099790    -0.17800
C841        C  0.30068652  0.39778855  0.54337167    -0.20000
C842        C  0.29525551  0.37182838  0.55583412     0.20300
C843        C  0.27617067  0.35764875  0.53022184    -0.33000
C844        C  0.27006952  0.33196533  0.54416145     0.01000
C845        C  0.28443888  0.31998208  0.58216237    -0.24300
C846        C  0.35554978  0.37841798  0.69418269    -0.28900
C847        C  0.36089815  0.40439877  0.68195975     0.06700
C848        C  0.34897735  0.41567031  0.64045599    -0.27600
H849        H  0.34287073  0.32844288  0.70910975     0.11400
H850        H  0.31231440  0.30277330  0.65950843     0.12500
H851        H  0.32241225  0.43228491  0.56067116     0.11600
H852        H  0.29085101  0.40698194  0.51251349     0.10800
H853        H  0.26509560  0.36704518  0.50110335     0.16200
H854        H  0.27960424  0.30037025  0.59369474     0.12100
H855        H  0.36590103  0.36931446  0.72438712     0.15000
H856        H  0.35370796  0.43550573  0.63026695     0.14800
C857        C  0.19923610  0.23651498  0.24013539    -0.18100
C858        C  0.21108223  0.22677207  0.19742954    -0.20300
C859        C  0.23829021  0.22733217  0.19222065     0.20400
C860        C  0.25377194  0.23809993  0.22995865    -0.03200
C861        C  0.24178745  0.24804432  0.27302231    -0.06300
C862        C  0.21438390  0.24709255  0.27831047     0.20600
C863        C  0.25724604  0.25864244  0.31097353     0.18800
C864        C  0.28445155  0.25951327  0.30543134    -0.17800
C865        C  0.29631969  0.24965488  0.26276057    -0.20000
C866        C  0.28119287  0.23874283  0.22485837     0.20300
C867        C  0.29294194  0.22842322  0.18207641    -0.33000
C868        C  0.27754459  0.21749506  0.14439556     0.01000
C869        C  0.25021876  0.21718242  0.14993799    -0.24300
C870        C  0.20265104  0.25633872  0.32192058    -0.28900
C871        C  0.21800426  0.26642700  0.36042302     0.06700
C872        C  0.24528865  0.26780907  0.35415801    -0.27600
H873        H  0.17822120  0.23563013  0.24342407     0.11400
H874        H  0.19894296  0.21860732  0.16856257     0.12500
H875        H  0.29659204  0.26765253  0.33431974     0.11600
H876        H  0.31734375  0.25042942  0.25954657     0.10800
H877        H  0.31394036  0.22902738  0.17803038     0.16200
H878        H  0.23802264  0.20901054  0.12114319     0.12100
H879        H  0.18169999  0.25512457  0.32632115     0.15000
H880        H  0.25740890  0.27568342  0.38336639     0.14800
C881        C  0.20998781  0.20884114  0.72414945    -0.18100
C882        C  0.22343797  0.19426175  0.75958883    -0.20300
C883        C  0.24567640  0.20447456  0.78260742     0.20400
C884        C  0.25447125  0.22964566  0.76962829    -0.03200
C885        C  0.24071329  0.24447967  0.73444392    -0.06300
C886        C  0.21845712  0.23393878  0.71149197     0.20600
C887        C  0.24937041  0.26975377  0.72193109     0.18800
C888        C  0.27163714  0.27995531  0.74484105    -0.17800
C889        C  0.28522054  0.26529547  0.77988139    -0.20000
C890        C  0.27673518  0.24021527  0.79249157     0.20300
C891        C  0.28939442  0.22604791  0.82936739    -0.33000
C892        C  0.27969700  0.20179376  0.84485740     0.01000
C893        C  0.25851529  0.19056028  0.82008040    -0.24300
C894        C  0.20562533  0.24831334  0.67495958    -0.28900
C895        C  0.21489308  0.27296792  0.66062296     0.06700
C896        C  0.23621779  0.28396305  0.68536486    -0.27600
H897        H  0.19295793  0.20048212  0.70659994     0.11400
H898        H  0.21635889  0.17506728  0.76920378     0.12500
H899        H  0.27858341  0.29924636  0.73557526     0.11600
H900        H  0.30224321  0.27365927  0.79744264     0.10800
H901        H  0.30572368  0.23476090  0.84873567     0.16200
H902        H  0.25076264  0.17209296  0.83264735     0.12100
H903        H  0.18923629  0.23970535  0.65562812     0.15000
H904        H  0.24372566  0.30269073  0.67367737     0.14800
C905        C  0.10108098  0.39954346  0.64086574    -0.18100
C906        C  0.08211836  0.41043296  0.67170685    -0.20300
C907        C  0.06080814  0.39553066  0.68756520     0.20400
C908        C  0.05869969  0.36932153  0.67236106    -0.03200
C909        C  0.07765697  0.35841386  0.64073025    -0.06300
C910        C  0.09895720  0.37362682  0.62508964     0.20600
C911        C  0.07531986  0.33230264  0.62483204     0.18800
C912        C  0.05418718  0.31732453  0.64120610    -0.17800
C913        C  0.03543730  0.32812317  0.67264343    -0.20000
C914        C  0.03744840  0.35410859  0.68813171     0.20300
C915        C  0.01811261  0.36535901  0.71777041    -0.33000
C916        C  0.01937191  0.39180709  0.73122341     0.01000
C917        C  0.04116454  0.40659518  0.71700889    -0.24300
C918        C  0.11797008  0.36251779  0.59457747    -0.28900
C919        C  0.11583571  0.33656250  0.57896892     0.06700
C920        C  0.09439852  0.32155415  0.59360690    -0.27600
H921        H  0.11737356  0.41143710  0.62917100     0.11400
H922        H  0.08404724  0.43056404  0.68293507     0.12500
H923        H  0.05214282  0.29725439  0.62965686     0.11600
H924        H  0.01918714  0.31620480  0.68445697     0.10800
H925        H  0.00142552  0.35373751  0.72848213     0.16200
H926        H  0.04227641  0.42698824  0.72692646     0.12100
H927        H  0.13479741  0.37389316  0.58358832     0.15000
H928        H  0.09314944  0.30136458  0.58228196     0.14800
C929        C  0.10675995  0.40786731  0.29145587    -0.18100
C930        C  0.11857511  0.38664764  0.31485219    -0.20300
C931        C  0.13677398  0.39053616  0.35289242     0.20400
C932        C  0.14356457  0.41604107  0.36691576    -0.03200
C933        C  0.13211447  0.43748341  0.34240839    -0.06300
C934        C  0.11324365  0.43336198  0.30512253     0.20600
C935        C  0.13898624  0.46300931  0.35618016     0.18800
C936        C  0.15707693  0.46688702  0.39447277    -0.17800
C937        C  0.16795722  0.44564040  0.41951881    -0.20000
C938        C  0.16126083  0.42012327  0.40620826     0.20300
C939        C  0.17144664  0.39865123  0.43212445    -0.33000
C940        C  0.16467794  0.37316641  0.41830554     0.01000
C941        C  0.14771310  0.36934156  0.37803075    -0.24300
C942        C  0.10061548  0.45475885  0.28328714    -0.28900
C943        C  0.10729180  0.48020055  0.29703917     0.06700
C944        C  0.12694602  0.48417945  0.33262073    -0.27600
H945        H  0.09238902  0.40432807  0.26289881     0.11400
H946        H  0.11309861  0.36714906  0.30379910     0.12500
H947        H  0.16244997  0.48638588  0.40569108     0.11600
H948        H  0.18149979  0.44917724  0.44950499     0.10800
H949        H  0.18439344  0.40174099  0.46324470     0.16200
H950        H  0.14201211  0.34978960  0.36764185     0.12100
H951        H  0.08531032  0.45167322  0.25629005     0.15000
H952        H  0.13170824  0.50380545  0.34417175     0.14800
C953        C  0.67084680  0.07745221  0.56234978    -0.18100
C954        C  0.68921490  0.09146637  0.53466139    -0.20300
C955        C  0.69712352  0.11642710  0.54960723     0.20400
C956        C  0.68600674  0.12751183  0.59241630    -0.03200
C957        C  0.66819941  0.11303608  0.62123901    -0.06300
C958        C  0.66044857  0.08789450  0.60609591     0.20600
C959        C  0.65828258  0.12371253  0.66540975     0.18800
C960        C  0.66538683  0.14897972  0.67954061    -0.17800
C961        C  0.68254325  0.16349211  0.65048970    -0.20000
C962        C  0.69322771  0.15281559  0.60729910     0.20300
C963        C  0.71197919  0.16655047  0.58022462    -0.33000
C964        C  0.72470611  0.15492480  0.53986151     0.01000
C965        C  0.71673468  0.13005803  0.52395557    -0.24300
C966        C  0.64229615  0.07388128  0.63479724    -0.28900
C967        C  0.63280103  0.08440025  0.67929203     0.06700
C968        C  0.64108241  0.10914724  0.69438705    -0.27600
H969        H  0.66509601  0.05826153  0.54996120     0.11400
H970        H  0.69739696  0.08268310  0.50173718     0.12500
H971        H  0.65771726  0.15749983  0.71316691     0.11600
H972        H  0.68790607  0.18288572  0.66239590     0.10800
H973        H  0.71825629  0.18548911  0.59323866     0.16200
H974        H  0.72653377  0.12094037  0.49297728     0.12100
H975        H  0.63546957  0.05500332  0.62257600     0.15000
H976        H  0.63291939  0.11769839  0.72745987     0.14800
C977        C  0.79489441  0.25737070  0.23912747    -0.18100
C978        C  0.78278792  0.26874211  0.19800059    -0.20300
C979        C  0.75561022  0.26753714  0.19222368     0.20400
C980        C  0.74048432  0.25464612  0.22810734    -0.03200
C981        C  0.75273363  0.24301593  0.26947261    -0.06300
C982        C  0.78007313  0.24450528  0.27523181     0.20600
C983        C  0.73757110  0.23013005  0.30527515     0.18800
C984        C  0.71041763  0.22874946  0.29934919    -0.17800
C985        C  0.69830512  0.24029198  0.25849484    -0.20000
C986        C  0.71312539  0.25334556  0.22269259     0.20300
C987        C  0.70109777  0.26473481  0.18125709    -0.33000
C988        C  0.71608204  0.27714267  0.14468578     0.01000
C989        C  0.74334984  0.27868020  0.15088043    -0.24300
C990        C  0.79199942  0.23366018  0.31747877    -0.28900
C991        C  0.77686506  0.22152639  0.35422707     0.06700
C992        C  0.74970335  0.21937492  0.34701368    -0.27600
H993        H  0.81586591  0.25875118  0.24280386     0.11400
H994        H  0.79471123  0.27853360  0.17069577     0.12500
H995        H  0.69849330  0.21889714  0.32657461     0.11600
H996        H  0.67732141  0.23899730  0.25490359     0.10800
H997        H  0.68016603  0.26324050  0.17677348     0.16200
H998        H  0.75516987  0.28816897  0.12300305     0.12100
H999        H  0.81286456  0.23547206  0.32254652     0.15000
H1000       H  0.73776469  0.20988613  0.37471277     0.14800
C1001       C  0.72613312  0.20261795  0.74774121    -0.18100
C1002       C  0.71253229  0.21604577  0.78454138    -0.20300
C1003       C  0.71897493  0.24188188  0.79602571     0.20400
C1004       C  0.73950399  0.25426821  0.77070631    -0.03200
C1005       C  0.75339453  0.24062214  0.73387878    -0.06300
C1006       C  0.74649628  0.21474431  0.72200196     0.20600
C1007       C  0.77381212  0.25304142  0.70829595     0.18800
C1008       C  0.78056341  0.27872657  0.72042017    -0.17800
C1009       C  0.76687793  0.29220615  0.75710790    -0.20000
C1010       C  0.74615774  0.28026192  0.78217752     0.20300
C1011       C  0.73238635  0.29359493  0.81928981    -0.33000
C1012       C  0.71239473  0.28106153  0.84553665     0.01000
C1013       C  0.70559818  0.25533934  0.83315617    -0.24300
C1014       C  0.75937376  0.20182196  0.68334130    -0.28900
C1015       C  0.77876607  0.21460824  0.65600600     0.06700
C1016       C  0.78642941  0.23991669  0.66974381    -0.27600
H1017       H  0.72058115  0.18279871  0.73914723     0.11400
H1018       H  0.69687396  0.20625288  0.80387986     0.12500
H1019       H  0.79625615  0.28849783  0.70112365     0.11600
H1020       H  0.77242458  0.31202436  0.76571348     0.10800
H1021       H  0.73817668  0.31312895  0.82963011     0.16200
H1022       H  0.69042333  0.24545311  0.85377987     0.12100
H1023       H  0.75312693  0.18250825  0.67247731     0.15000
H1024       H  0.80139254  0.24989916  0.64873377     0.14800
C1025       C  0.84869175  0.33438701  0.53886505    -0.18100
C1026       C  0.86108424  0.35369368  0.56661155    -0.20300
C1027       C  0.87761522  0.34700051  0.60601129     0.20400
C1028       C  0.88188852  0.32068053  0.61762063    -0.03200
C1029       C  0.86970630  0.30116357  0.58904939    -0.06300
C1030       C  0.85284144  0.30804633  0.54968424     0.20600
C1031       C  0.87437391  0.27480296  0.59991206     0.18800
C1032       C  0.89076671  0.26813113  0.63956806    -0.17800
C1033       C  0.90250311  0.28749323  0.66838010    -0.20000
C1034       C  0.89826283  0.31387854  0.65776387     0.20300
C1035       C  0.91004093  0.33357549  0.68639865    -0.33000
C1036       C  0.90605686  0.35988205  0.67440294     0.01000
C1037       C  0.88983931  0.36626912  0.63405005    -0.24300
C1038       C  0.84050204  0.28849177  0.52184289    -0.28900
C1039       C  0.84557425  0.26222893  0.53194713     0.06700
C1040       C  0.86254203  0.25557447  0.57095983    -0.27600
H1041       H  0.83593464  0.34006739  0.50880878     0.11400
H1042       H  0.85763357  0.37391368  0.55738453     0.12500
H1043       H  0.89445332  0.24790313  0.64840389     0.11600
H1044       H  0.91498212  0.28181913  0.69885743     0.10800
H1045       H  0.92248481  0.32849106  0.71732289     0.16200
H1046       H  0.88628545  0.38648511  0.62479806     0.12100
H1047       H  0.82742151  0.29363909  0.49191103     0.15000
H1048       H  0.86615749  0.23526112  0.57940572     0.14800
C1049       C  0.82485406  0.90420734  0.06184816    -0.18100
C1050       C  0.80602417  0.89045164  0.03507067    -0.20300
C1051       C  0.79708292  0.86620627  0.05180143     0.20400
C1052       C  0.80763217  0.85547569  0.09551303    -0.03200
C1053       C  0.82600853  0.86976034  0.12343775    -0.06300
C1054       C  0.83465190  0.89425753  0.10645237     0.20600
C1055       C  0.83545936  0.85969172  0.16859328     0.18800
C1056       C  0.82737808  0.83492873  0.18424894    -0.17800
C1057       C  0.80962360  0.82053627  0.15599793    -0.20000
C1058       C  0.79927661  0.83082790  0.11206038     0.20300
C1059       C  0.77992107  0.81743454  0.08555214    -0.33000
C1060       C  0.76798603  0.82885067  0.04392850     0.01000
C1061       C  0.77706041  0.85301167  0.02672380    -0.24300
C1062       C  0.85288657  0.90838119  0.13437111    -0.28900
C1063       C  0.86170870  0.89885245  0.18004093     0.06700
C1064       C  0.85291135  0.87452442  0.19703063    -0.27600
H1065       H  0.83136748  0.92290706  0.04815796     0.11400
H1066       H  0.79827276  0.89890430  0.00144156     0.12500
H1067       H  0.83469705  0.82673248  0.21846944     0.11600
H1068       H  0.80361402  0.80154091  0.16896851     0.10800
H1069       H  0.77275256  0.79901757  0.09953132     0.16200
H1070       H  0.76784814  0.86195473  0.99488903     0.12100
H1071       H  0.86016096  0.92684097  0.12079657     0.15000
H1072       H  0.86045861  0.86674153  0.23146988     0.14800
C1073       C  0.84576919  0.82988012  0.47106968    -0.18100
C1074       C  0.85833152  0.85008835  0.44583689    -0.20300
C1075       C  0.87421775  0.84481182  0.40473366     0.20400
C1076       C  0.87744164  0.81897954  0.38868871    -0.03200
C1077       C  0.86509054  0.79852378  0.41467366    -0.06300
C1078       C  0.84906514  0.80397428  0.45600647     0.20600
C1079       C  0.86894840  0.77261860  0.39948468     0.18800
C1080       C  0.88451710  0.76737635  0.35795987    -0.17800
C1081       C  0.89631409  0.78766756  0.33167883    -0.20000
C1082       C  0.89304620  0.81356641  0.34679320     0.20300
C1083       C  0.90506786  0.83410559  0.32084639    -0.33000
C1084       C  0.90226791  0.85990089  0.33719437     0.01000
C1085       C  0.88683485  0.86495810  0.37933338    -0.24300
C1086       C  0.83695999  0.78341700  0.48181836    -0.28900
C1087       C  0.84150955  0.75753152  0.46766273     0.06700
C1088       C  0.85739601  0.75237247  0.42635147    -0.27600
H1089       H  0.83364661  0.83450708  0.50264954     0.11400
H1090       H  0.85559000  0.86989730  0.45847495     0.12500
H1091       H  0.88758329  0.74753278  0.34578700     0.11600
H1092       H  0.90817724  0.78307238  0.29972729     0.10800
H1093       H  0.91671150  0.83003255  0.28832975     0.16200
H1094       H  0.88406312  0.88480150  0.39182931     0.12100
H1095       H  0.82478541  0.78744735  0.51364481     0.15000
H1096       H  0.86066496  0.73240359  0.41495407     0.14800
C1097       C  0.89738847  0.10006731  0.35602808    -0.18100
C1098       C  0.90896099  0.07978385  0.32955074    -0.20300
C1099       C  0.89476553  0.05721619  0.31858531     0.20400
C1100       C  0.86845378  0.05530974  0.33351562    -0.03200
C1101       C  0.85689516  0.07558618  0.36096047    -0.06300
C1102       C  0.87149755  0.09802010  0.37222730     0.20600
C1103       C  0.83093035  0.07319742  0.37794394     0.18800
C1104       C  0.81659377  0.05085410  0.36598820    -0.17800
C1105       C  0.82796514  0.03087867  0.33826349    -0.20000
C1106       C  0.85396259  0.03277625  0.32252249     0.20300
C1107       C  0.86613667  0.01193088  0.29848764    -0.33000
C1108       C  0.89290948  0.01286790  0.28711850     0.01000
C1109       C  0.90681534  0.03598865  0.29539764    -0.24300
C1110       C  0.85997993  0.11798045  0.39968923    -0.28900
C1111       C  0.83428607  0.11565350  0.41691869     0.06700
C1112       C  0.81985522  0.09317891  0.40657793    -0.27600
H1113       H  0.90880955  0.11721885  0.36445034     0.11400
H1114       H  0.92914767  0.08157265  0.31834844     0.12500
H1115       H  0.79664177  0.04873504  0.37840680     0.11600
H1116       H  0.81660172  0.01365107  0.33013117     0.10800
H1117       H  0.85519940  0.99420345  0.29224554     0.16200
H1118       H  0.92739050  0.03692151  0.28650682     0.12100
H1119       H  0.87109023  0.13535415  0.40822658     0.15000
H1120       H  0.80001218  0.09153475  0.41993336     0.14800
C1121       C  0.15281495  0.65738330  0.34974793    -0.18100
C1122       C  0.16533301  0.67545719  0.38021857    -0.20300
C1123       C  0.15090963  0.69064628  0.41352343     0.20400
C1124       C  0.12361214  0.68737031  0.41648057    -0.03200
C1125       C  0.11099515  0.66909510  0.38589557    -0.06300
C1126       C  0.12568775  0.65416464  0.35220879     0.20600
C1127       C  0.08370620  0.66566285  0.38923687     0.18800
C1128       C  0.06931093  0.68076090  0.42264983    -0.17800
C1129       C  0.08176115  0.69920286  0.45232862    -0.20000
C1130       C  0.10883967  0.70263530  0.44945412     0.20300
C1131       C  0.12124824  0.72167882  0.47783812    -0.33000
C1132       C  0.14824184  0.72579154  0.47375004     0.01000
C1133       C  0.16311462  0.70969593  0.44261631    -0.24300
C1134       C  0.11304650  0.63583987  0.32244287    -0.28900
C1135       C  0.08608854  0.63188863  0.32669078     0.06700
C1136       C  0.07143381  0.64678292  0.35991915    -0.27600
H1137       H  0.16434807  0.64592419  0.32422575     0.11400
H1138       H  0.18626529  0.67775048  0.37736047     0.12500
H1139       H  0.04840015  0.67837260  0.42570499     0.11600
H1140       H  0.07018703  0.71085862  0.47745137     0.10800
H1141       H  0.10969271  0.73406844  0.50174774     0.16200
H1142       H  0.18386730  0.71306276  0.43872057     0.12100
H1143       H  0.12434620  0.62367142  0.29767327     0.15000
H1144       H  0.05073187  0.64313000  0.36385896     0.14800
C1145       C  0.29490971  0.74716510  0.72818367    -0.18100
C1146       C  0.28295484  0.75690474  0.68538332    -0.20300
C1147       C  0.25567583  0.75857098  0.68203386     0.20400
C1148       C  0.24028611  0.74994756  0.72190493    -0.03200
C1149       C  0.25236531  0.74009086  0.76510562    -0.06300
C1150       C  0.27983729  0.73887738  0.76851404     0.20600
C1151       C  0.23692491  0.73178575  0.80509849     0.18800
C1152       C  0.20964757  0.73297169  0.80147107    -0.17800
C1153       C  0.19771531  0.74265731  0.75873727    -0.20000
C1154       C  0.21282948  0.75138241  0.71885099     0.20300
C1155       C  0.20095273  0.76158335  0.67614105    -0.33000
C1156       C  0.21612381  0.77049325  0.63627415     0.01000
C1157       C  0.24354262  0.76877941  0.63962379    -0.24300
C1158       C  0.29170000  0.72986773  0.81241463    -0.28900
C1159       C  0.27637984  0.72217562  0.85302522     0.06700
C1160       C  0.24896050  0.72284812  0.84841550    -0.27600
H1161       H  0.31598312  0.74633722  0.72989310     0.11400
H1162       H  0.29508749  0.76332896  0.65497823     0.12500
H1163       H  0.19751086  0.72659764  0.83191475     0.11600
H1164       H  0.17663959  0.74350441  0.75704546     0.10800
H1165       H  0.17988590  0.76252423  0.67394181     0.16200
H1166       H  0.25553721  0.77530383  0.60907623     0.12100
H1167       H  0.31275412  0.72939579  0.81531931     0.15000
H1168       H  0.23677486  0.71681700  0.87906418     0.14800
C1169       C  0.27401141  0.78155374  0.21116796    -0.18100
C1170       C  0.25910320  0.79519488  0.24573044    -0.20300
C1171       C  0.23847354  0.78288561  0.27033452     0.20400
C1172       C  0.23239829  0.75671418  0.25913236    -0.03200
C1173       C  0.24742889  0.74296206  0.22432471    -0.06300
C1174       C  0.26842816  0.75542273  0.20060488     0.20600
C1175       C  0.24146640  0.71674165  0.21336585     0.18800
C1176       C  0.22043871  0.70461948  0.23705440    -0.17800
C1177       C  0.20579041  0.71812771  0.27221866    -0.20000
C1178       C  0.21183354  0.74404864  0.28381428     0.20300
C1179       C  0.19862795  0.75703364  0.32165659    -0.33000
C1180       C  0.20590222  0.78240263  0.33543669     0.01000
C1181       C  0.22484337  0.79573178  0.30802766    -0.24300
C1182       C  0.28297444  0.74180283  0.16552370    -0.28900
C1183       C  0.27637645  0.71610564  0.15275683     0.06700
C1184       C  0.25611667  0.70341175  0.17777710    -0.27600
H1185       H  0.28994954  0.79140792  0.19279301     0.11400
H1186       H  0.26401499  0.81524208  0.25388173     0.12500
H1187       H  0.21543095  0.68461792  0.22866035     0.11600
H1188       H  0.18998118  0.70821413  0.29081810     0.10800
H1189       H  0.18392443  0.74677178  0.34278387     0.16200
H1190       H  0.23063257  0.81518193  0.31899131     0.12100
H1191       H  0.29854483  0.75171101  0.14603834     0.15000
H1192       H  0.25065941  0.68378942  0.16730870     0.14800
C1193       C  0.03877607  0.83206014  0.29485501    -0.18100
C1194       C  0.05652403  0.81911765  0.32556595    -0.20300
C1195       C  0.07098499  0.83294972  0.36088206     0.20400
C1196       C  0.06777100  0.86019591  0.36466273    -0.03200
C1197       C  0.05021225  0.87331038  0.33310598    -0.06300
C1198       C  0.03538348  0.85909474  0.29857282     0.20600
C1199       C  0.04712999  0.90056436  0.33681844     0.18800
C1200       C  0.06186083  0.91446484  0.37158431    -0.17800
C1201       C  0.07930046  0.90149013  0.40274673    -0.20000
C1202       C  0.08226486  0.87439703  0.39971813     0.20300
C1203       C  0.10002361  0.86137568  0.43023020    -0.33000
C1204       C  0.10345372  0.83436383  0.42664648     0.01000
C1205       C  0.08901878  0.82019540  0.39173518    -0.24300
C1206       C  0.01668064  0.87200901  0.26982150    -0.28900
C1207       C  0.01261510  0.89895513  0.27505244     0.06700
C1208       C  0.02858167  0.91327011  0.30724783    -0.27600
H1209       H  0.02753932  0.82088350  0.26843591     0.11400
H1210       H  0.05880542  0.79825567  0.32192495     0.12500
H1211       H  0.05967519  0.93534661  0.37507423     0.11600
H1212       H  0.09040546  0.91264465  0.42940734     0.10800
H1213       H  0.11248216  0.87253852  0.45450139     0.16200
H1214       H  0.09249461  0.79950937  0.38754484     0.12100
H1215       H  0.00437036  0.86088433  0.24504734     0.15000
H1216       H  0.02525773  0.93395015  0.31198257     0.14800
C1217       C  0.09606059  0.21652581  0.63108175    -0.18100
C1218       C  0.08581187  0.19709166  0.66172228    -0.20300
C1219       C  0.09588894  0.17172119  0.66020442     0.20400
C1220       C  0.11671732  0.16604228  0.62765692    -0.03200
C1221       C  0.12722741  0.18570571  0.59710306    -0.06300
C1222       C  0.11668996  0.21098746  0.59859246     0.20600
C1223       C  0.14827139  0.18004413  0.56509751     0.18800
C1224       C  0.15843614  0.15473042  0.56369544    -0.17800
C1225       C  0.14777853  0.13517356  0.59335682    -0.20000
C1226       C  0.12692392  0.14064511  0.62526298     0.20300
C1227       C  0.11584222  0.12100801  0.65416772    -0.33000
C1228       C  0.09482308  0.12628283  0.68601295     0.01000
C1229       C  0.08524926  0.15181175  0.68980161    -0.24300
C1230       C  0.12714345  0.23035925  0.56797037    -0.28900
C1231       C  0.14842262  0.22504277  0.53653277     0.06700
C1232       C  0.15891310  0.19981252  0.53540185    -0.27600
H1233       H  0.08784766  0.23592633  0.63281527     0.11400
H1234       H  0.06985326  0.20186323  0.68631979     0.12500
H1235       H  0.17455933  0.15001412  0.53945017     0.11600
H1236       H  0.15582515  0.11571644  0.59125916     0.10800
H1237       H  0.12346844  0.10137489  0.65157609     0.16200
H1238       H  0.06897347  0.15590133  0.71413111     0.12100
H1239       H  0.11920570  0.24988509  0.56986270     0.15000
H1240       H  0.17539450  0.19561943  0.51164621     0.14800
C1241       C  0.15829216  0.15073114  0.95032809    -0.18100
C1242       C  0.13733516  0.13851798  0.92667358    -0.20300
C1243       C  0.14050649  0.11398935  0.90458779     0.20400
C1244       C  0.16470007  0.10116558  0.90797860    -0.03200
C1245       C  0.18564351  0.11319212  0.93309901    -0.06300
C1246       C  0.18267302  0.13843688  0.95307473     0.20600
C1247       C  0.20985265  0.10039440  0.93636172     0.18800
C1248       C  0.21283576  0.07559874  0.91534251    -0.17800
C1249       C  0.19230916  0.06399425  0.88938453    -0.20000
C1250       C  0.16826361  0.07675927  0.88474939     0.20300
C1251       C  0.14796873  0.06592064  0.85632853    -0.33000
C1252       C  0.12389192  0.07875186  0.85264161     0.01000
C1253       C  0.12016300  0.10244217  0.87785144    -0.24300
C1254       C  0.20440976  0.15135252  0.97324909    -0.28900
C1255       C  0.22888055  0.13903179  0.97476005     0.06700
C1256       C  0.23106246  0.11312524  0.95821698    -0.27600
H1257       H  0.15554504  0.16999252  0.96571403     0.11400
H1258       H  0.11881793  0.14858820  0.92445746     0.12500
H1259       H  0.23133911  0.06550739  0.91763394     0.11600
H1260       H  0.19537307  0.04518338  0.87230944     0.10800
H1261       H  0.15085540  0.04764370  0.83712780     0.16200
H1262       H  0.10166987  0.11253293  0.87464970     0.12100
H1263       H  0.20252807  0.17124667  0.98603352     0.15000
H1264       H  0.24984477  0.10346415  0.95885459     0.14800
C1265       C  0.99490773  0.94779555  0.99106716    -0.18100
C1266       C  0.00529462  0.95988344  0.94915748    -0.20300
C1267       C  0.00522663  0.98710514  0.94486793     0.20400
C1268       C  0.99457731  0.00236693  0.98301442    -0.03200
C1269       C  0.98402344  0.99012890  0.02536361    -0.06300
C1270       C  0.98425241  0.96269584  0.02947698     0.20600
C1271       C  0.97340359  0.00533204  0.06363404     0.18800
C1272       C  0.97330061  0.03257954  0.05925168    -0.17800
C1273       C  0.98372476  0.04469306  0.01726505    -0.20000
C1274       C  0.99445330  0.02979996  0.97883707     0.20300
C1275       C  0.00478654  0.04176629  0.93616592    -0.33000
C1276       C  0.01509045  0.02656236  0.89756504     0.01000
C1277       C  0.01542643  0.99923619  0.90278488    -0.24300
C1278       C  0.97422909  0.95064932  0.07216234    -0.28900
C1279       C  0.96406124  0.96567635  0.11100345     0.06700
C1280       C  0.96343251  0.99305545  0.10593383    -0.27600
H1281       H  0.99528721  0.92676538  0.99349293     0.11400
H1282       H  0.01339545  0.94790277  0.92001240     0.12500
H1283       H  0.96521725  0.04455403  0.08842306     0.11600
H1284       H  0.98337993  0.06572402  0.01485627     0.10800
H1285       H  0.00435068  0.06275777  0.93262624     0.16200
H1286       H  0.02341662  0.98717609  0.87362035     0.12100
H1287       H  0.97493350  0.92965952  0.07562654     0.15000
H1288       H  0.95562562  0.00498860  0.13546015     0.14800
C1289       C  0.95390671  0.02434487  0.49129118    -0.18100
C1290       C  0.96841113  0.03758828  0.52719195    -0.20300
C1291       C  0.99269896  0.02796805  0.54276701     0.20400
C1292       C  0.00263353  0.00496046  0.52164069    -0.03200
C1293       C  0.98792288  0.99151372  0.48564269    -0.06300
C1294       C  0.96338612  0.00119981  0.47044405     0.20600
C1295       C  0.99787134  0.96847015  0.46465173     0.18800
C1296       C  0.02225075  0.95898289  0.47986712    -0.17800
C1297       C  0.03668280  0.97215485  0.51586035    -0.20000
C1298       C  0.02705720  0.99511504  0.53709911     0.20300
C1299       C  0.04089860  0.00775742  0.57494920    -0.33000
C1300       C  0.03038832  0.02983815  0.59807872     0.01000
C1301       C  0.00670296  0.04031674  0.58058167    -0.24300
C1302       C  0.94920424  0.98800640  0.43361882    -0.28900
C1303       C  0.95956251  0.96559105  0.41129366     0.06700
C1304       C  0.98365351  0.95572383  0.42771766    -0.27600
H1305       H  0.93524937  0.03219617  0.47987185     0.11400
H1306       H  0.96051394  0.05524835  0.54312771     0.12500
H1307       H  0.03017653  0.94134209  0.46389799     0.11600
H1308       H  0.05534046  0.96430840  0.52725008     0.10800
H1309       H  0.05881937  0.99929906  0.58887051     0.16200
H1310       H  0.99840015  0.05727331  0.59851996     0.12100
H1311       H  0.93100353  0.99606564  0.42014245     0.15000
H1312       H  0.99187071  0.93863625  0.41007461     0.14800
C1313       C  0.95074185  0.16281468  0.60023504    -0.18100
C1314       C  0.97051408  0.15220099  0.62992507    -0.20300
C1315       C  0.96543853  0.13080935  0.66086267     0.20400
C1316       C  0.94022854  0.11998645  0.66176089    -0.03200
C1317       C  0.92023461  0.13088797  0.63234886    -0.06300
C1318       C  0.92545278  0.15238128  0.60121306     0.20600
C1319       C  0.89494965  0.12030664  0.63439725     0.18800
C1320       C  0.88990684  0.09873191  0.66463658    -0.17800
C1321       C  0.90976394  0.08768964  0.69301088    -0.20000
C1322       C  0.93492758  0.09822327  0.69207133     0.20300
C1323       C  0.95485054  0.08722150  0.72075056    -0.33000
C1324       C  0.97999375  0.09789400  0.72038037     0.01000
C1325       C  0.98510727  0.11985890  0.69056104    -0.24300
C1326       C  0.90518803  0.16311791  0.57227243    -0.28900
C1327       C  0.87979083  0.15296052  0.57561301     0.06700
C1328       C  0.87498680  0.13155269  0.60654170    -0.27600
H1329       H  0.95519565  0.17929779  0.57675750     0.11400
H1330       H  0.98981170  0.16070256  0.62860956     0.12500
H1331       H  0.87055456  0.09037768  0.66635106     0.11600
H1332       H  0.90538679  0.07098270  0.71596625     0.10800
H1333       H  0.95079997  0.07025210  0.74326658     0.16200
H1334       H  0.00458671  0.12797766  0.68935288     0.12100
H1335       H  0.90892101  0.17970261  0.54856576     0.15000
H1336       H  0.85548722  0.12350736  0.60873057     0.14800
C1337       C  0.14442586  0.93418511  0.72106811    -0.18100
C1338       C  0.15744569  0.91500578  0.69371045    -0.20300
C1339       C  0.14565910  0.90374509  0.65204821     0.20400
C1340       C  0.12010745  0.91135434  0.63888037    -0.03200
C1341       C  0.10676454  0.93030627  0.66710599    -0.06300
C1342       C  0.11922236  0.94223987  0.70769632     0.20600
C1343       C  0.08127667  0.93788311  0.65371484     0.18800
C1344       C  0.06914306  0.92608771  0.61297677    -0.17800
C1345       C  0.08241670  0.90752136  0.58479540    -0.20000
C1346       C  0.10799356  0.90029263  0.59708634     0.20300
C1347       C  0.12164266  0.88219156  0.56828365    -0.33000
C1348       C  0.14718516  0.87478195  0.58054889     0.01000
C1349       C  0.15893709  0.88516811  0.62313162    -0.24300
C1350       C  0.10673228  0.96277103  0.73271918    -0.28900
C1351       C  0.08179333  0.97128462  0.71804327     0.06700
C1352       C  0.06882586  0.95796204  0.67976668    -0.27600
H1353       H  0.15424074  0.94300097  0.75230948     0.11400
H1354       H  0.17695494  0.90933307  0.70461605     0.12500
H1355       H  0.04956036  0.93162629  0.60226877     0.11600
H1356       H  0.07278532  0.89904110  0.55299708     0.10800
H1357       H  0.11201102  0.87309628  0.53727020     0.16200
H1358       H  0.17838826  0.87894266  0.63339456     0.12100
H1359       H  0.11688524  0.97290101  0.76210613     0.15000
H1360       H  0.04975390  0.96448580  0.66771068     0.14800
C1361       C  0.34292744  0.85129492  0.10101466    -0.18100
C1362       C  0.33207158  0.83187066  0.07119224    -0.20300
C1363       C  0.34449447  0.80769961  0.06608897     0.20400
C1364       C  0.36797122  0.80299246  0.09195427    -0.03200
C1365       C  0.37873777  0.82248606  0.12277280    -0.06300
C1366       C  0.36627979  0.84683172  0.12673620     0.20600
C1367       C  0.40204915  0.81770578  0.14921864     0.18800
C1368       C  0.41435033  0.79344398  0.14437684    -0.17800
C1369       C  0.40382169  0.77423563  0.11350017    -0.20000
C1370       C  0.38069084  0.77884044  0.08704019     0.20300
C1371       C  0.36993196  0.75962985  0.05619605    -0.33000
C1372       C  0.34630876  0.76396691  0.03063461     0.01000
C1373       C  0.33373871  0.78813447  0.03593024    -0.24300
C1374       C  0.37756219  0.86642663  0.15576606    -0.28900
C1375       C  0.40086617  0.86197106  0.18189720     0.06700
C1376       C  0.41280314  0.83740107  0.17927891    -0.27600
H1377       H  0.33306341  0.86987100  0.10387707     0.11400
H1378       H  0.31401545  0.83583188  0.05182318     0.12500
H1379       H  0.43224074  0.78937445  0.16421214     0.11600
H1380       H  0.41379143  0.75572861  0.11033548     0.10800
H1381       H  0.37962822  0.74095356  0.05328360     0.16200
H1382       H  0.31544362  0.79162768  0.01701503     0.12100
H1383       H  0.36824208  0.88533148  0.15798179     0.15000
H1384       H  0.43086173  0.83398718  0.19905873     0.14800
C1385       C  0.51100257  0.95536888  0.57198820    -0.18100
C1386       C  0.50153974  0.94315125  0.52917113    -0.20300
C1387       C  0.49372426  0.95791912  0.48803944     0.20400
C1388       C  0.49549602  0.98535493  0.49055884    -0.03200
C1389       C  0.50512647  0.99770005  0.53373787    -0.06300
C1390       C  0.51297404  0.98262554  0.57457305     0.20600
C1391       C  0.50694148  0.02512719  0.53592339     0.18800
C1392       C  0.49893940  0.03993378  0.49508430    -0.17800
C1393       C  0.48946987  0.02776111  0.45247110    -0.20000
C1394       C  0.48772370  0.00053588  0.44987086     0.20300
C1395       C  0.47835699  0.98835049  0.40711280    -0.33000
C1396       C  0.47648663  0.96097557  0.40359057     0.01000
C1397       C  0.48425498  0.94584373  0.44452511    -0.24300
C1398       C  0.52269889  0.99505963  0.61714986    -0.28900
C1399       C  0.52483135  0.02248518  0.61968409     0.06700
C1400       C  0.51674883  0.03730931  0.57872607    -0.27600
H1401       H  0.51689005  0.94344803  0.60309597     0.11400
H1402       H  0.50035838  0.92212352  0.52824213     0.12500
H1403       H  0.50009094  0.06096328  0.49601144     0.11600
H1404       H  0.48352504  0.03969398  0.42141089     0.10800
H1405       H  0.47256288  0.00047320  0.37620273     0.16200
H1406       H  0.48309369  0.92483231  0.44245603     0.12100
H1407       H  0.52861142  0.98326708  0.64843266     0.15000
H1408       H  0.51796536  0.05833465  0.58019819     0.14800
C1409       C  0.53224659  0.96702062  0.04906390    -0.18100
C1410       C  0.54582907  0.98156284  0.01388953    -0.20300
C1411       C  0.53308910  0.00103822  0.98679737     0.20400
C1412       C  0.50655002  0.00645471  0.99638084    -0.03200
C1413       C  0.49289228  0.99195351  0.03226753    -0.06300
C1414       C  0.50578816  0.97198579  0.05820772     0.20600
C1415       C  0.46637237  0.99738314  0.04207973     0.18800
C1416       C  0.45380636  0.01728272  0.01572139    -0.17800
C1417       C  0.46723706  0.03140293  0.97957461    -0.20000
C1418       C  0.49352301  0.02597890  0.96942312     0.20300
C1419       C  0.50667423  0.03892144  0.93131441    -0.33000
C1420       C  0.53264765  0.03250699  0.91954860     0.01000
C1421       C  0.54607987  0.01436696  0.94884688    -0.24300
C1422       C  0.49225408  0.95776423  0.09390117    -0.28900
C1423       C  0.46616067  0.96369237  0.10557425     0.06700
C1424       C  0.45314227  0.98322850  0.07882908    -0.27600
H1425       H  0.54245982  0.95191577  0.06922576     0.11400
H1426       H  0.56623925  0.97737177  0.00748869     0.12500
H1427       H  0.43351691  0.02178786  0.02276121     0.11600
H1428       H  0.45698029  0.04638745  0.95916782     0.10800
H1429       H  0.49622712  0.05301678  0.90897943     0.16200
H1430       H  0.56602038  0.00924347  0.93985540     0.12100
H1431       H  0.50252890  0.94281554  0.11444907     0.15000
H1432       H  0.43322938  0.98826326  0.08820613     0.14800
C1433       C  0.34695904  0.05243707  0.22838606    -0.18100
C1434       C  0.33351574  0.07166448  0.20188919    -0.20300
C1435       C  0.34438227  0.08254457  0.15898246     0.20400
C1436       C  0.36919584  0.07408748  0.14295587    -0.03200
C1437       C  0.38305827  0.05526963  0.17047288    -0.06300
C1438       C  0.37172721  0.04408524  0.21298901     0.20600
C1439       C  0.40804435  0.04728257  0.15481358     0.18800
C1440       C  0.41889135  0.05798870  0.11179799    -0.17800
C1441       C  0.40495937  0.07619076  0.08398353    -0.20000
C1442       C  0.38013239  0.08431016  0.09922374     0.20300
C1443       C  0.36614941  0.10262257  0.07163782    -0.33000
C1444       C  0.34179008  0.11156631  0.08791647     0.01000
C1445       C  0.33100479  0.10172826  0.13179997    -0.24300
C1446       C  0.38497816  0.02412412  0.23820386    -0.28900
C1447       C  0.40964161  0.01567428  0.22200427     0.06700
C1448       C  0.42136277  0.02799665  0.18128280    -0.27600
H1449       H  0.33794493  0.04404716  0.26089446     0.11400
H1450       H  0.31448424  0.07782278  0.21467068     0.12500
H1451       H  0.43804531  0.05203365  0.09933676     0.11600
H1452       H  0.41363375  0.08396829  0.05058916     0.10800
H1453       H  0.37457879  0.11061825  0.03813283     0.16200
H1454       H  0.31224270  0.10881861  0.14434754     0.12100
H1455       H  0.37573301  0.01449736  0.26923826     0.15000
H1456       H  0.44008870  0.02122666  0.16786523     0.14800
C1457       C  0.29380454  0.91221755  0.33973891    -0.18100
C1458       C  0.27211691  0.90050881  0.36166753    -0.20300
C1459       C  0.27534266  0.88089511  0.39726189     0.20400
C1460       C  0.30063013  0.87296956  0.41101416    -0.03200
C1461       C  0.32252653  0.88514793  0.38956035    -0.06300
C1462       C  0.31907516  0.90472340  0.35345597     0.20600
C1463       C  0.34783444  0.87741258  0.40357448     0.18800
C1464       C  0.35103452  0.85738185  0.43837865    -0.17800
C1465       C  0.32932577  0.84497702  0.45895859    -0.20000
C1466       C  0.30403682  0.85259256  0.44554260     0.20300
C1467       C  0.28210740  0.83994523  0.46531808    -0.33000
C1468       C  0.25692905  0.84806961  0.45217318     0.01000
C1469       C  0.25370845  0.86871400  0.41860183    -0.24300
C1470       C  0.34092240  0.91603791  0.33090176    -0.28900
C1471       C  0.36618850  0.90839125  0.34460149     0.06700
C1472       C  0.36948101  0.88937306  0.38158834    -0.27600
H1473       H  0.29080776  0.92711935  0.31197057     0.11400
H1474       H  0.25279446  0.90662741  0.35043120     0.12500
H1475       H  0.37035670  0.85109564  0.44927470     0.11600
H1476       H  0.33232153  0.82938831  0.48532484     0.10800
H1477       H  0.28455663  0.82380720  0.49071377     0.16200
H1478       H  0.23425796  0.87452743  0.40741399     0.12100
H1479       H  0.33829114  0.93048921  0.30211999     0.15000
H1480       H  0.38891490  0.88294871  0.39154970     0.14800
C1481       C  0.60603973  0.88118519  0.18884117    -0.18100
C1482       C  0.58619384  0.89260768  0.21683756    -0.20300
C1483       C  0.56001907  0.88665282  0.20726380     0.20400
C1484       C  0.55381716  0.86905597  0.16882737    -0.03200
C1485       C  0.57384330  0.85792173  0.13987940    -0.06300
C1486       C  0.60004427  0.86385294  0.15038306     0.20600
C1487       C  0.56766426  0.84086328  0.10055008     0.18800
C1488       C  0.54145031  0.83495168  0.09098293    -0.17800
C1489       C  0.52162291  0.84560863  0.12024584    -0.20000
C1490       C  0.52762505  0.86264002  0.15921618     0.20300
C1491       C  0.50788906  0.87357555  0.18841676    -0.33000
C1492       C  0.51386528  0.89149215  0.22616548     0.01000
C1493       C  0.53995792  0.89808684  0.23519868    -0.24300
C1494       C  0.61984654  0.85229745  0.12240167    -0.28900
C1495       C  0.61399420  0.83522577  0.08321228     0.06700
C1496       C  0.58780922  0.82990933  0.07187474    -0.27600
H1497       H  0.62611939  0.88597252  0.19719811     0.11400
H1498       H  0.59133277  0.90601694  0.24614521     0.12500
H1499       H  0.53628175  0.82192689  0.06107338     0.11600
H1500       H  0.50155470  0.84060747  0.11225404     0.10800
H1501       H  0.48771849  0.86877731  0.18069754     0.16200
H1502       H  0.54460426  0.91194668  0.26407528     0.12100
H1503       H  0.63998870  0.85686438  0.13083473     0.15000
H1504       H  0.58319234  0.81683356  0.04169543     0.14800
loop_ 
_geom_bond_atom_site_label_1 
_geom_bond_atom_site_label_2 
_geom_bond_distance 
_geom_bond_site_symmetry_2 
_ccdc_geom_bond_type 
O1          Cr19   2.017       .  S
O1            C9   1.265       .  A
O2          Cr19   1.946       .  S
O2            C3   1.253       .  A
C3            O4   1.274       .  A
C3         C1423   1.478       .  S
O4          Cr20   2.050       .  S
O5          Cr20   1.961       .  S
O5            C6   1.259       .  A
C6            O7   1.274       .  A
C6         C1375   1.481       .  S
O7          Cr21   2.041       .  S
O8          Cr21   1.967       .  S
O8            C9   1.253       .  A
C9         C1492   1.478       .  S
O10         Cr19   1.947       .  S
O10          C18   1.258       .  A
O11         Cr19   2.026       .  S
O11          C12   1.269       .  A
C12          O13   1.256       .  A
C12        C1447   1.479   1_565  S
O13         Cr20   1.972       .  S
O14         Cr20   2.020       .  S
O14          C15   1.271       .  A
C15          O16   1.260       .  A
C15        C1471   1.478       .  S
O16         Cr21   1.965       .  S
O17         Cr21   2.068       .  S
O17          C18   1.281       .  A
C18        C1396   1.499       .  S
Cr19         O22   1.762       .  S
Cr20         O22   1.766       .  S
Cr21         O22   1.768       .  S
O23         Cr41   2.013   1_655  S
O23          C31   1.265   1_655  A
O24         Cr41   1.950       .  S
O24          C25   1.254       .  A
C25          O26   1.277       .  A
C25        C1300   1.478       .  S
O26         Cr42   2.056       .  S
O27         Cr42   1.954       .  S
O27          C28   1.257       .  A
C28          O29   1.271       .  A
C28        C1228   1.478       .  S
O29         Cr43   2.033       .  S
O30         Cr43   1.973       .  S
O30          C31   1.253       .  A
C31        C1324   1.482   1_455  S
O32         Cr41   1.949       .  S
O32          C40   1.259       .  A
O33         Cr41   2.026       .  S
O33          C34   1.268   1_545  A
C34          O35   1.259   1_565  A
C34        C1351   1.487       .  S
O35         Cr42   1.978       .  S
O36         Cr42   2.041       .  S
O36          C37   1.275       .  A
C37          O38   1.258       .  A
C37        C1252   1.480       .  S
O38         Cr43   1.959       .  S
O39         Cr43   2.056       .  S
O39          C40   1.280       .  A
C40        C1276   1.490       .  S
Cr41         O44   1.761       .  S
Cr42         O44   1.763       .  S
Cr43         O44   1.770       .  S
O45         Cr63   2.014       .  S
O45          C53   1.268       .  A
O46         Cr63   1.953       .  S
O46          C47   1.251       .  A
C47          O48   1.267       .  A
C47        C1180   1.469       .  S
O48         Cr64   2.029       .  S
O49         Cr64   1.960       .  S
O49          C50   1.252       .  A
C50          O51   1.272       .  A
C50        C1204   1.468       .  S
O51         Cr65   2.045       .  S
O52         Cr65   1.957       .  S
O52          C53   1.257       .  A
C53        C1132   1.475       .  S
O54         Cr63   1.965       .  S
O54          C62   1.259       .  A
O55         Cr63   2.026       .  S
O55          C56   1.271       .  A
C56          O57   1.260       .  A
C56        C1468   1.473       .  S
O57         Cr64   1.960       .  S
O58         Cr64   2.041       .  S
O58          C59   1.275       .  A
C59          O60   1.259       .  A
C59        C1348   1.477       .  S
O60         Cr65   1.973       .  S
O61         Cr65   2.039       .  S
O61          C62   1.274       .  A
C62        C1156   1.491       .  S
Cr63         O66   1.761       .  S
Cr64         O66   1.764       .  S
Cr65         O66   1.767       .  S
O67         Cr85   1.955       .  S
O67          C75   1.256       .  A
O68         Cr85   2.056       .  S
O68          C69   1.278       .  A
C69          O70   1.258       .  A
C69        C1084   1.487       .  S
O70         Cr86   1.954       .  S
O71         Cr86   2.050       .  S
O71          C72   1.272       .  A
C72          O73   1.251       .  A
C72        C1303   1.477       .  S
O73         Cr87   1.951       .  S
O74         Cr87   2.019       .  S
O74          C75   1.269       .  A
C75        C1207   1.476   1_655  S
O76         Cr85   2.050       .  S
O76          C84   1.277       .  A
O77         Cr85   1.968       .  S
O77          C78   1.257       .  A
C78          O79   1.271       .  A
C78        C1063   1.474       .  S
O79         Cr86   2.037       .  S
O80         Cr86   1.962       .  S
O80          C81   1.258       .  A
C81          O82   1.272       .  A
C81        C1108   1.479   1_565  S
O82         Cr87   2.026       .  S
O83         Cr87   1.950       .  S
O83          C84   1.254       .  A
C84        C1279   1.490       .  S
Cr85         O88   1.765       .  S
Cr86         O88   1.762       .  S
Cr87         O88   1.759       .  S
O89        Cr107   1.955       .  S
O89          C97   1.252       .  A
O90        Cr107   2.036       .  S
O90          C91   1.271       .  A
C91          O92   1.258       .  A
C91        C1327   1.478       .  S
O92        Cr108   1.961       .  S
O93        Cr108   2.043       .  S
O93          C94   1.273       .  A
C94          O95   1.253       .  A
C94        C1015   1.477       .  S
O95        Cr109   1.952       .  S
O96        Cr109   2.023       .  S
O96          C97   1.268       .  A
C97        C1039   1.476       .  S
O98        Cr107   2.050       .  S
O98         C106   1.277       .  A
O99        Cr107   1.958       .  S
O99         C100   1.258       .  A
C100        O101   1.271       .  A
C100       C1111   1.466       .  S
O101       Cr108   2.028       .  S
O102       Cr108   1.975       .  S
O102        C103   1.258       .  A
C103        O104   1.271       .  A
C103        C964   1.483       .  S
O104       Cr109   2.029       .  S
O105       Cr109   1.958       .  S
O105        C106   1.258       .  A
C106        C991   1.491       .  S
Cr107       O110   1.770       .  S
Cr108       O110   1.763       .  S
Cr109       O110   1.763       .  S
O111       Cr129   1.967       .  S
O111        C119   1.255       .  A
O112       Cr129   2.031       .  S
O112        C113   1.271       .  A
C113        O114   1.255       .  A
C113        C919   1.466       .  S
O114       Cr130   1.955       .  S
O115       Cr130   2.044       .  S
O115        C116   1.274       .  A
C116        O117   1.252       .  A
C116        C895   1.470       .  S
O117       Cr131   1.944       .  S
O118       Cr131   2.018       .  S
O118        C119   1.267       .  A
C119       C1231   1.483       .  S
O120       Cr129   2.048       .  S
O120        C128   1.278       .  A
O121       Cr129   1.964       .  S
O121        C122   1.261       .  A
C122        O123   1.272       .  A
C122        C940   1.482       .  S
O123       Cr130   2.028       .  S
O124       Cr130   1.966       .  S
O124        C125   1.256       .  A
C125        O126   1.270       .  A
C125        C844   1.480       .  S
O126       Cr131   2.032       .  S
O127       Cr131   1.951       .  S
O127        C128   1.257       .  A
C128        C871   1.487       .  S
Cr129       O132   1.765       .  S
Cr130       O132   1.761       .  S
Cr131       O132   1.762       .  S
O133       Cr151   1.965       .  S
O133        C141   1.259       .  A
O134       Cr151   2.028       .  S
O134        C135   1.267       .  A
C135        O136   1.253       .  A
C135       C1135   1.460       .  S
O136       Cr152   1.961       .  S
O137       Cr152   2.031       .  S
O137        C138   1.267       .  A
C138        O139   1.252       .  A
C138        C796   1.467       .  S
O139       Cr153   1.950       .  S
O140       Cr153   2.027       .  S
O140        C141   1.271       .  A
C141        C751   1.482   1_455  S
O142       Cr151   2.031       .  S
O142        C150   1.271       .  A
O143       Cr151   1.972       .  S
O143        C144   1.261       .  A
C144        O145   1.273       .  A
C144        C823   1.473       .  S
O145       Cr152   2.036       .  S
O146       Cr152   1.963       .  S
O146        C147   1.259       .  A
C147        O148   1.272       .  A
C147        C943   1.477       .  S
O148       Cr153   2.030       .  S
O149       Cr153   1.968       .  S
O149        C150   1.259       .  A
C150        C772   1.490       .  S
Cr151       O154   1.773       .  S
Cr152       O154   1.770       .  S
Cr153       O154   1.762       .  S
O155       Cr173   2.016       .  S
O155        C163   1.266       .  A
O156       Cr173   1.949       .  S
O156        C157   1.252       .  A
C157        O158   1.273       .  A
C157        C799   1.468       .  S
O158       Cr174   2.040       .  S
O159       Cr174   1.946       .  S
O159        C160   1.255       .  A
C160        O161   1.275       .  A
C160       C1036   1.484       .  S
O161       Cr175   2.049       .  S
O162       Cr175   1.964       .  S
O162        C163   1.255       .  A
C163        C916   1.483   1_655  S
O164       Cr173   1.947       .  S
O164        C172   1.257       .  A
O165       Cr173   2.033       .  S
O165        C166   1.270       .  A
C166        O167   1.256       .  A
C166        C703   1.481       .  S
O167       Cr174   1.960       .  S
O168       Cr174   2.029       .  S
O168        C169   1.270       .  A
C169        O170   1.258       .  A
C169        C727   1.473       .  S
O170       Cr175   1.962       .  S
O171       Cr175   2.054       .  S
O171        C172   1.280       .  A
C172        C775   1.489       .  S
Cr173       O176   1.762       .  S
Cr174       O176   1.758       .  S
Cr175       O176   1.766       .  S
O177       Cr195   1.975       .  S
O177        C185   1.257   1_556  A
O178       Cr195   2.043   1_554  S
O178        C179   1.274       .  A
C179        O180   1.257       .  A
C179        C679   1.478       .  S
O180       Cr196   1.952       .  S
O181       Cr196   2.031       .  S
O181        C182   1.269       .  A
C182        O183   1.251       .  A
C182       C1183   1.467       .  S
O183       Cr197   1.947       .  S
O184       Cr197   2.019   1_556  S
O184        C185   1.268   1_556  A
C185       C1372   1.491       .  S
O186       Cr195   2.053       .  S
O186        C194   1.278       .  A
O187       Cr195   1.974       .  S
O187        C188   1.259       .  A
C188        O189   1.268       .  A
C188        C655   1.463       .  S
O189       Cr196   2.014   1_556  S
O190       Cr196   1.969       .  S
O190        C191   1.259       .  A
C191        O192   1.272       .  A
C191        C820   1.487       .  S
O192       Cr197   2.036       .  S
O193       Cr197   1.952   1_556  S
O193        C194   1.257       .  A
C194       C1159   1.493       .  S
Cr195       O198   1.767   1_556  S
Cr196       O198   1.761       .  S
Cr197       O198   1.758       .  S
O199       Cr217   2.021   1_554  S
O199        C207   1.271       .  A
O200       Cr217   1.951       .  S
O200        C201   1.250       .  A
C201        O202   1.270       .  A
C201       C1012   1.476       .  S
O202       Cr218   2.043       .  S
O203       Cr218   1.964       .  S
O203        C204   1.255       .  A
C204        O205   1.269       .  A
C204        C580   1.460       .  S
O205       Cr219   2.028   1_556  S
O206       Cr219   1.966       .  S
O206        C207   1.257       .  A
C207        C631   1.485   1_554  S
O208       Cr217   1.962   1_554  S
O208        C216   1.257       .  A
O209       Cr217   2.033       .  S
O209        C210   1.274       .  A
C210        O211   1.260       .  A
C210        C724   1.485       .  S
O211       Cr218   1.964       .  S
O212       Cr218   2.042   1_554  S
O212        C213   1.275       .  A
C213        O214   1.261       .  A
C213        C604   1.479       .  S
O214       Cr219   1.976       .  S
O215       Cr219   2.036       .  S
O215        C216   1.273       .  A
C216        C988   1.488       .  S
Cr217       O220   1.755       .  S
Cr218       O220   1.763       .  S
Cr219       O220   1.769   1_554  S
O221       Cr239   1.967       .  S
O221        C229   1.256       .  A
O222       Cr239   2.034       .  S
O222        C223   1.272       .  A
C223        O224   1.258       .  A
C223        C556   1.468       .  S
O224       Cr240   1.968       .  S
O225       Cr240   2.039       .  S
O225        C226   1.272       .  A
C226        O227   1.253       .  A
C226        C532   1.472       .  S
O227       Cr241   1.955       .  S
O228       Cr241   2.003       .  S
O228        C229   1.265       .  A
C229        C583   1.474       .  S
O230       Cr239   2.039       .  S
O230        C238   1.275       .  A
O231       Cr239   1.969       .  S
O231        C232   1.257       .  A
C232        O233   1.271       .  A
C232        C847   1.469       .  S
O233       Cr240   2.030       .  S
O234       Cr240   1.976       .  S
O234        C235   1.260       .  A
C235        O236   1.268       .  A
C235        C652   1.472       .  S
O236       Cr241   2.011       .  S
O237       Cr241   1.953       .  S
O237        C238   1.256       .  A
C238        C511   1.485       .  S
Cr239       O242   1.763       .  S
Cr240       O242   1.762       .  S
Cr241       O242   1.757       .  S
O243       Cr261   2.019   1_554  S
O243        C251   1.268   1_554  A
O244       Cr261   1.938       .  S
O244        C245   1.250       .  A
C245        O246   1.270       .  A
C245        C892   1.466       .  S
O246       Cr262   2.038       .  S
O247       Cr262   1.956       .  S
O247        C248   1.257       .  A
C248        O249   1.272       .  A
C248        C487   1.471       .  S
O249       Cr263   2.037   1_556  S
O250       Cr263   1.961       .  S
O250        C251   1.256   1_554  A
C251        C559   1.479       .  S
O252       Cr261   1.949   1_554  S
O252        C260   1.256       .  A
O253       Cr261   2.036       .  S
O253        C254   1.272       .  A
C254        O255   1.257       .  A
C254       C1255   1.484       .  S
O255       Cr262   1.963       .  S
O256       Cr262   2.018   1_554  S
O256        C257   1.269       .  A
C257        O258   1.260       .  A
C257       C1444   1.468       .  S
O258       Cr263   1.976       .  S
O259       Cr263   2.042       .  S
O259        C260   1.274       .  A
C260        C868   1.486       .  S
Cr261       O264   1.759   1_556  S
Cr262       O264   1.763   1_556  S
Cr263       O264   1.768       .  S
O265       Cr283   1.967       .  S
O265        C273   1.255       .  A
O266       Cr283   2.047       .  S
O266        C267   1.275       .  A
C267        O268   1.257       .  A
C267        C628   1.476       .  S
O268       Cr284   1.969       .  S
O269       Cr284   2.038       .  S
O269        C270   1.271       .  A
C270        O271   1.254       .  A
C270       C1420   1.477       .  S
O271       Cr285   1.958       .  S
O272       Cr285   2.006       .  S
O272        C273   1.265       .  A
C273        C484   1.478       .  S
O274       Cr283   2.056       .  S
O274        C282   1.279       .  A
O275       Cr283   1.975       .  S
O275        C276   1.259       .  A
C276        O277   1.272       .  A
C276        C967   1.474       .  S
O277       Cr284   2.031       .  S
O278       Cr284   1.977       .  S
O278        C279   1.260       .  A
C279        O280   1.269       .  A
C279        C460   1.471   1_545  S
O280       Cr285   2.015       .  S
O281       Cr285   1.962       .  S
O281        C282   1.258       .  A
C282       C1399   1.498       .  S
Cr283       O286   1.763       .  S
Cr284       O286   1.763       .  S
Cr285       O286   1.759       .  S
O287       Cr305   1.971       .  S
O287        C295   1.256   1_556  A
O288       Cr305   2.043   1_554  S
O288        C289   1.274       .  A
C289        O290   1.258       .  A
C289       C1495   1.482       .  S
O290       Cr306   1.957       .  S
O291       Cr306   2.039       .  S
O291        C292   1.272       .  A
C292        O293   1.251       .  A
C292        C436   1.471       .  S
O293       Cr307   1.944       .  S
O294       Cr307   2.022   1_556  S
O294        C295   1.269   1_556  A
C295        C388   1.491       .  S
O296       Cr305   2.058       .  S
O296        C304   1.279       .  A
O297       Cr305   1.976       .  S
O297        C298   1.261       .  A
C298        O299   1.271       .  A
C298        C463   1.473       .  S
O299       Cr306   2.022   1_556  S
O300       Cr306   1.975       .  S
O300        C301   1.259       .  A
C301        O302   1.271       .  A
C301       C1060   1.482       .  S
O302       Cr307   2.034       .  S
O303       Cr307   1.956   1_556  S
O303        C304   1.258       .  A
C304        C412   1.493       .  S
Cr305       O308   1.767   1_556  S
Cr306       O308   1.762       .  S
Cr307       O308   1.760       .  S
O309       Cr327   2.032       .  S
O309        C317   1.270       .  A
O310       Cr327   1.944       .  S
O310        C311   1.252       .  A
C311        O312   1.267       .  A
C311        C439   1.468       .  S
O312       Cr328   2.027       .  S
O313       Cr328   1.967       .  S
O313        C314   1.254       .  A
C314        O315   1.272       .  A
C314        C748   1.476       .  S
O315       Cr329   2.045       .  S
O316       Cr329   1.963       .  S
O316        C317   1.256       .  A
C317       C1087   1.481       .  S
O318       Cr327   1.963       .  S
O318        C326   1.257       .  A
O319       Cr327   2.032       .  S
O319        C320   1.272       .  A
C320        O321   1.258       .  A
C320        C364   1.479       .  S
O321       Cr328   1.960       .  S
O322       Cr328   2.026       .  S
O322        C323   1.272       .  A
C323        O324   1.261       .  A
C323        C700   1.462       .  S
O324       Cr329   1.966       .  S
O325       Cr329   2.055       .  S
O325        C326   1.278       .  A
C326        C415   1.496       .  S
Cr327       O330   1.761       .  S
Cr328       O330   1.764       .  S
Cr329       O330   1.766       .  S
O331       Cr349   2.019       .  S
O331        C339   1.264       .  A
O332       Cr349   1.948       .  S
O332        C333   1.257       .  A
C333        O334   1.272       .  A
C333        C535   1.470       .  S
O334       Cr350   2.037       .  S
O335       Cr350   1.952       .  S
O335        C336   1.256       .  A
C336        O337   1.275       .  A
C336        C391   1.484       .  S
O337       Cr351   2.043       .  S
O338       Cr351   1.967       .  S
O338        C339   1.253       .  A
C339        C676   1.480       .  S
O340       Cr349   1.942       .  S
O340        C348   1.258       .  A
O341       Cr349   2.024       .  S
O341        C342   1.268       .  A
C342        O343   1.256       .  A
C342        C607   1.482       .  S
O343       Cr350   1.973       .  S
O344       Cr350   2.016       .  S
O344        C345   1.269       .  A
C345        O346   1.258       .  A
C345        C367   1.476       .  S
O346       Cr351   1.963       .  S
O347       Cr351   2.062       .  S
O347        C348   1.281       .  A
C348        C508   1.493       .  S
Cr349       O352   1.763       .  S
Cr350       O352   1.767       .  S
Cr351       O352   1.769       .  S
C353        C354   1.399       .  A
C353        C358   1.404       .  A
C353        H369   1.084       .  S
C354        C355   1.403       .  A
C354        H370   1.083       .  S
C355        C365   1.406       .  A
C355        C356   1.414       .  A
C356        C362   1.409       .  A
C356        C357   1.412       .  A
C357        C359   1.414       .  A
C357        C358   1.410       .  A
C358        C366   1.401       .  A
C359        C368   1.405       .  A
C359        C360   1.403       .  A
C360        C361   1.399       .  A
C360        H371   1.084       .  S
C361        C362   1.405       .  A
C361        H372   1.084       .  S
C362        C363   1.401       .  A
C363        C364   1.409       .  A
C363        H373   1.085       .  S
C364        C365   1.404       .  A
C365        H374   1.084       .  S
C366        C367   1.407       .  A
C366        H375   1.084       .  S
C367        C368   1.405       .  A
C368        H376   1.084       .  S
C377        C378   1.400       .  A
C377        C382   1.404       .  A
C377        H393   1.084       .  S
C378        C379   1.403       .  A
C378        H394   1.083       .  S
C379        C389   1.409       .  A
C379        C380   1.414       .  A
C380        C386   1.408       .  A
C380        C381   1.416       .  A
C381        C383   1.416       .  A
C381        C382   1.408       .  A
C382        C390   1.402       .  A
C383        C392   1.412       .  A
C383        C384   1.404       .  A
C384        C385   1.402       .  A
C384        H395   1.083       .  S
C385        C386   1.406       .  A
C385        H396   1.084       .  S
C386        C387   1.405       .  A
C387        C388   1.413       .  A
C387        H397   1.084       .  S
C388        C389   1.407       .  A
C389        H398   1.084       .  S
C390        C391   1.410       .  A
C390        H399   1.085       .  S
C391        C392   1.406       .  A
C392        H400   1.084       .  S
C401        C402   1.400       .  A
C401        C406   1.403       .  A
C401        H417   1.083       .  S
C402        C403   1.405       .  A
C402        H418   1.084       .  S
C403        C413   1.403       .  A
C403        C404   1.408       .  A
C404        C410   1.415       .  A
C404        C405   1.418       .  A
C405        C407   1.408       .  A
C405        C406   1.414       .  A
C406        C414   1.410       .  A
C407        C416   1.408       .  A
C407        C408   1.406       .  A
C408        C409   1.403       .  A
C408        H419   1.084       .  S
C409        C410   1.404       .  A
C409        H420   1.083       .  S
C410        C411   1.414       .  A
C411        C412   1.408       .  A
C411        H421   1.084       .  S
C412        C413   1.412       .  A
C413        H422   1.084       .  S
C414        C415   1.407       .  A
C414        H423   1.084       .  S
C415        C416   1.415       .  A
C416        H424   1.084       .  S
C425        C426   1.396       .  A
C425        C430   1.403       .  A
C425        H441   1.084       .  S
C426        C427   1.401       .  A
C426        H442   1.083       .  S
C427        C437   1.401       .  A
C427        C428   1.414       .  A
C428        C434   1.408       .  A
C428        C429   1.408       .  A
C429        C431   1.415       .  A
C429        C430   1.409       .  A
C430        C438   1.394       .  A
C431        C440   1.404       .  A
C431        C432   1.403       .  A
C432        C433   1.398       .  A
C432        H443   1.084       .  S
C433        C434   1.404       .  A
C433        H444   1.084       .  S
C434        C435   1.397       .  A
C435        C436   1.410       .  A
C435        H445   1.085       .  S
C436        C437   1.402       .  A
C437        H446   1.084       .  S
C438        C439   1.406       .  A
C438        H447   1.085       .  S
C439        C440   1.403       .  A
C440        H448   1.084       .  S
C449        C450   1.402       .  A
C449        C454   1.405       .  A
C449        H465   1.083       .  S
C450        C451   1.404       .  A
C450        H466   1.083       .  S
C451        C461   1.407       .  A
C451        C452   1.413       .  A
C452        C458   1.411       .  A
C452        C453   1.411       .  A
C453        C455   1.411       .  A
C453        C454   1.413       .  A
C454        C462   1.408       .  A
C455        C464   1.399       .  A
C455        C456   1.403       .  A
C456        C457   1.396       .  A
C456        H467   1.084       .  S
C457        C458   1.402       .  A
C457        H468   1.083       .  S
C458        C459   1.397       .  A
C459        C460   1.404       .  A
C459        H469   1.085       .  S
C460        C461   1.405       .  A
C461        H470   1.084       .  S
C462        C463   1.406       .  A
C462        H471   1.084       .  S
C463        C464   1.405       .  A
C464        H472   1.085       .  S
C473        C474   1.401       .  A
C473        C478   1.404       .  A
C473        H489   1.084       .  S
C474        C475   1.405       .  A
C474        H490   1.084       .  S
C475        C485   1.403       .  A
C475        C476   1.409       .  A
C476        C482   1.413       .  A
C476        C477   1.411       .  A
C477        C479   1.409       .  A
C477        C478   1.415       .  A
C478        C486   1.409       .  A
C479        C488   1.397       .  A
C479        C480   1.403       .  A
C480        C481   1.396       .  A
C480        H491   1.084       .  S
C481        C482   1.402       .  A
C481        H492   1.084       .  S
C482        C483   1.401       .  A
C483        C484   1.404       .  A
C483        H493   1.084       .  S
C484        C485   1.411       .  A
C485        H494   1.084       .  S
C486        C487   1.404       .  A
C486        H495   1.084       .  S
C487        C488   1.404       .  A
C488        H496   1.085       .  S
C497        C498   1.397       .  A
C497        C502   1.401       .  A
C497        H513   1.083       .  S
C498        C499   1.404       .  A
C498        H514   1.084       .  S
C499        C509   1.397       .  A
C499        C500   1.406       .  A
C500        C506   1.415       .  A
C500        C501   1.414       .  A
C501        C503   1.408       .  A
C501        C502   1.415       .  A
C502        C510   1.404       .  A
C503        C512   1.404       .  A
C503        C504   1.406       .  A
C504        C505   1.403       .  A
C504        H515   1.084       .  S
C505        C506   1.405       .  A
C505        H516   1.083       .  S
C506        C507   1.414       .  A
C507        C508   1.409       .  A
C507        H517   1.084       .  S
C508        C509   1.413       .  A
C509        H518   1.084       .  S
C510        C511   1.404       .  A
C510        H519   1.084       .  S
C511        C512   1.413       .  A
C512        H520   1.084       .  S
C521        C522   1.400   1_554  A
C521        C526   1.403       .  A
C521        H537   1.083       .  S
C522        C523   1.405       .  A
C522        H538   1.084       .  S
C523        C533   1.401       .  A
C523        C524   1.410       .  A
C524        C530   1.414       .  A
C524        C525   1.409   1_556  A
C525        C527   1.409       .  A
C525        C526   1.414       .  A
C526        C534   1.405       .  A
C527        C536   1.394       .  A
C527        C528   1.402       .  A
C528        C529   1.396   1_554  A
C528        H539   1.084       .  S
C529        C530   1.402       .  A
C529        H540   1.084       .  S
C530        C531   1.401       .  A
C531        C532   1.403       .  A
C531        H541   1.085       .  S
C532        C533   1.409       .  A
C533        H542   1.085       .  S
C534        C535   1.406       .  A
C534        H543   1.084       .  S
C535        C536   1.405       .  A
C536        H544   1.085       .  S
C545        C546   1.399       .  A
C545        C550   1.404       .  A
C545        H561   1.084       .  S
C546        C547   1.402       .  A
C546        H562   1.084       .  S
C547        C557   1.405       .  A
C547        C548   1.415       .  A
C548        C554   1.410       .  A
C548        C549   1.412       .  A
C549        C551   1.414       .  A
C549        C550   1.410       .  A
C550        C558   1.400       .  A
C551        C560   1.407       .  A
C551        C552   1.404       .  A
C552        C553   1.400       .  A
C552        H563   1.084       .  S
C553        C554   1.404       .  A
C553        H564   1.084       .  S
C554        C555   1.401       .  A
C555        C556   1.405       .  A
C555        H565   1.083       .  S
C556        C557   1.402       .  A
C557        H566   1.084       .  S
C558        C559   1.407       .  A
C558        H567   1.084       .  S
C559        C560   1.407       .  A
C560        H568   1.084       .  S
C569        C570   1.395       .  A
C569        C574   1.402       .  A
C569        H585   1.084       .  S
C570        C571   1.402       .  A
C570        H586   1.084       .  S
C571        C581   1.395       .  A
C571        C572   1.410       .  A
C572        C578   1.414       .  A
C572        C573   1.409       .  A
C573        C575   1.411       .  A
C573        C574   1.412       .  A
C574        C582   1.398       .  A
C575        C584   1.403       .  A
C575        C576   1.405       .  A
C576        C577   1.401       .  A
C576        H587   1.084       .  S
C577        C578   1.404       .  A
C577        H588   1.084       .  S
C578        C579   1.407       .  A
C579        C580   1.403       .  A
C579        H589   1.084       .  S
C580        C581   1.400       .  A
C581        H590   1.083       .  S
C582        C583   1.404       .  A
C582        H591   1.084       .  S
C583        C584   1.408       .  A
C584        H592   1.084       .  S
C593        C594   1.398       .  A
C593        C598   1.402       .  A
C593        H609   1.083       .  S
C594        C595   1.404       .  A
C594        H610   1.084       .  S
C595        C605   1.402       .  A
C595        C596   1.411       .  A
C596        C602   1.413       .  A
C596        C597   1.414       .  A
C597        C599   1.412       .  A
C597        C598   1.411       .  A
C598        C606   1.401       .  A
C599        C608   1.408       .  A
C599        C600   1.405       .  A
C600        C601   1.403       .  A
C600        H611   1.083       .  S
C601        C602   1.405       .  A
C601        H612   1.083       .  S
C602        C603   1.410       .  A
C603        C604   1.407       .  A
C603        H613   1.084       .  S
C604        C605   1.405       .  A
C605        H614   1.081       .  S
C606        C607   1.407       .  A
C606        H615   1.085       .  S
C607        C608   1.409       .  A
C608        H616   1.084       .  S
C617        C618   1.403       .  A
C617        C622   1.406       .  A
C617        H633   1.084       .  S
C618        C619   1.405       .  A
C618        H634   1.084       .  S
C619        C629   1.411       .  A
C619        C620   1.414       .  A
C620        C626   1.411       .  A
C620        C621   1.415       .  A
C621        C623   1.413       .  A
C621        C622   1.410       .  A
C622        C630   1.408       .  A
C623        C632   1.404       .  A
C623        C624   1.403       .  A
C624        C625   1.398       .  A
C624        H635   1.084       .  S
C625        C626   1.403       .  A
C625        H636   1.084       .  S
C626        C627   1.402       .  A
C627        C628   1.403       .  A
C627        H637   1.083       .  S
C628        C629   1.407       .  A
C629        H638   1.084       .  S
C630        C631   1.412       .  A
C630        H639   1.084       .  S
C631        C632   1.405       .  A
C632        H640   1.084       .  S
C641        C642   1.395       .  A
C641        C646   1.402       .  A
C641        H657   1.084       .  S
C642        C643   1.402       .  A
C642        H658   1.084       .  S
C643        C653   1.397       .  A
C643        C644   1.411       .  A
C644        C650   1.412       .  A
C644        C645   1.409       .  A
C645        C647   1.414       .  A
C645        C646   1.411       .  A
C646        C654   1.396       .  A
C647        C656   1.407       .  A
C647        C648   1.404       .  A
C648        C649   1.401       .  A
C648        H659   1.083       .  S
C649        C650   1.404       .  A
C649        H660   1.084       .  S
C650        C651   1.405       .  A
C651        C652   1.406       .  A
C651        H661   1.084       .  S
C652        C653   1.404       .  A
C653        H662   1.085       .  S
C654        C655   1.402       .  A
C654        H663   1.085       .  S
C655        C656   1.403       .  A
C656        H664   1.084       .  S
C665        C666   1.400       .  A
C665        C670   1.403       .  A
C665        H681   1.083       .  S
C666        C667   1.405       .  A
C666        H682   1.084       .  S
C667        C677   1.401       .  A
C667        C668   1.408       .  A
C668        C674   1.415       .  A
C668        C669   1.413       .  A
C669        C671   1.408       .  A
C669        C670   1.416       .  A
C670        C678   1.409       .  A
C671        C680   1.398       .  A
C671        C672   1.404       .  A
C672        C673   1.399       .  A
C672        H683   1.084       .  S
C673        C674   1.403       .  A
C673        H684   1.084       .  S
C674        C675   1.407       .  A
C675        C676   1.405       .  A
C675        H685   1.084       .  S
C676        C677   1.409       .  A
C677        H686   1.085       .  S
C678        C679   1.404       .  A
C678        H687   1.084       .  S
C679        C680   1.409       .  A
C680        H688   1.085       .  S
C689        C690   1.398       .  A
C689        C694   1.404       .  A
C689        H705   1.084       .  S
C690        C691   1.402       .  A
C690        H706   1.084       .  S
C691        C701   1.404       .  A
C691        C692   1.415       .  A
C692        C698   1.410       .  A
C692        C693   1.411       .  A
C693        C695   1.413       .  A
C693        C694   1.409       .  A
C694        C702   1.399       .  A
C695        C704   1.405       .  A
C695        C696   1.404       .  A
C696        C697   1.400       .  A
C696        H707   1.084       .  S
C697        C698   1.404       .  A
C697        H708   1.084       .  S
C698        C699   1.400       .  A
C699        C700   1.404       .  A
C699        H709   1.084       .  S
C700        C701   1.399       .  A
C701        H710   1.084       .  S
C702        C703   1.408       .  A
C702        H711   1.084       .  S
C703        C704   1.408       .  A
C704        H712   1.084       .  S
C713        C714   1.401       .  A
C713        C718   1.403       .  A
C713        H729   1.084       .  S
C714        C715   1.405       .  A
C714        H730   1.083       .  S
C715        C725   1.404       .  A
C715        C716   1.409       .  A
C716        C722   1.413       .  A
C716        C717   1.414       .  A
C717        C719   1.410       .  A
C717        C718   1.415       .  A
C718        C726   1.409       .  A
C719        C728   1.400       .  A
C719        C720   1.404       .  A
C720        C721   1.398       .  A
C720        H731   1.084       .  S
C721        C722   1.403       .  A
C721        H732   1.084       .  S
C722        C723   1.405       .  A
C723        C724   1.406       .  A
C723        H733   1.084       .  S
C724        C725   1.411       .  A
C725        H734   1.084       .  S
C726        C727   1.404       .  A
C726        H735   1.084       .  S
C727        C728   1.405       .  A
C728        H736   1.085       .  S
C737        C738   1.402       .  A
C737        C742   1.404       .  A
C737        H753   1.083       .  S
C738        C739   1.405       .  A
C738        H754   1.084       .  S
C739        C749   1.407       .  A
C739        C740   1.411       .  A
C740        C746   1.413       .  A
C740        C741   1.416       .  A
C741        C743   1.410       .  A
C741        C742   1.413       .  A
C742        C750   1.410       .  A
C743        C752   1.404       .  A
C743        C744   1.404       .  A
C744        C745   1.400       .  A
C744        H755   1.083       .  S
C745        C746   1.404       .  A
C745        H756   1.084       .  S
C746        C747   1.407       .  A
C747        C748   1.405       .  A
C747        H757   1.085       .  S
C748        C749   1.407       .  A
C749        H758   1.084       .  S
C750        C751   1.408       .  A
C750        H759   1.084       .  S
C751        C752   1.407       .  A
C752        H760   1.084       .  S
C761        C762   1.400       .  A
C761        C766   1.405       .  A
C761        H777   1.084       .  S
C762        C763   1.404   1_656  A
C762        H778   1.083       .  S
C763        C773   1.408       .  A
C763        C764   1.413       .  A
C764        C770   1.409       .  A
C764        C765   1.415   1_454  A
C765        C767   1.414       .  A
C765        C766   1.408       .  A
C766        C774   1.402       .  A
C767        C776   1.409       .  A
C767        C768   1.403   1_656  A
C768        C769   1.400       .  A
C768        H779   1.083       .  S
C769        C770   1.404       .  A
C769        H780   1.084       .  S
C770        C771   1.403       .  A
C771        C772   1.411       .  A
C771        H781   1.084       .  S
C772        C773   1.409       .  A
C773        H782   1.084       .  S
C774        C775   1.413       .  A
C774        H783   1.084       .  S
C775        C776   1.406       .  A
C776        H784   1.084       .  S
C785        C786   1.396       .  A
C785        C790   1.402       .  A
C785        H801   1.084       .  S
C786        C787   1.402   1_655  A
C786        H802   1.082       .  S
C787        C797   1.396       .  A
C787        C788   1.409       .  A
C788        C794   1.414       .  A
C788        C789   1.409   1_455  A
C789        C791   1.409   1_655  A
C789        C790   1.414       .  A
C790        C798   1.401       .  A
C791        C800   1.399   1_455  A
C791        C792   1.404       .  A
C792        C793   1.400       .  A
C792        H803   1.084       .  S
C793        C794   1.404       .  A
C793        H804   1.084       .  S
C794        C795   1.406       .  A
C795        C796   1.404       .  A
C795        H805   1.085       .  S
C796        C797   1.404       .  A
C797        H806   1.085       .  S
C798        C799   1.402       .  A
C798        H807   1.085       .  S
C799        C800   1.408       .  A
C800        H808   1.085   1_655  S
C809        C810   1.401       .  A
C809        C814   1.405       .  A
C809        H825   1.083       .  S
C810        C811   1.404       .  A
C810        H826   1.085       .  S
C811        C821   1.406       .  A
C811        C812   1.413       .  A
C812        C818   1.410       .  A
C812        C813   1.414       .  A
C813        C815   1.414       .  A
C813        C814   1.411       .  A
C814        C822   1.405       .  A
C815        C824   1.407       .  A
C815        C816   1.403       .  A
C816        C817   1.400       .  A
C816        H827   1.084       .  S
C817        C818   1.404       .  A
C817        H828   1.083       .  S
C818        C819   1.404       .  A
C819        C820   1.410       .  A
C819        H829   1.084       .  S
C820        C821   1.409       .  A
C821        H830   1.085       .  S
C822        C823   1.406       .  A
C822        H831   1.085       .  S
C823        C824   1.402       .  A
C824        H832   1.084       .  S
C833        C834   1.398       .  A
C833        C838   1.404       .  A
C833        H849   1.084       .  S
C834        C835   1.403       .  A
C834        H850   1.084       .  S
C835        C845   1.403       .  A
C835        C836   1.413       .  A
C836        C842   1.410       .  A
C836        C837   1.412       .  A
C837        C839   1.415       .  A
C837        C838   1.409       .  A
C838        C846   1.398       .  A
C839        C848   1.408       .  A
C839        C840   1.403       .  A
C840        C841   1.401       .  A
C840        H851   1.083       .  S
C841        C842   1.405       .  A
C841        H852   1.083       .  S
C842        C843   1.404       .  A
C843        C844   1.409       .  A
C843        H853   1.084       .  S
C844        C845   1.407       .  A
C845        H854   1.084       .  S
C846        C847   1.403       .  A
C846        H855   1.081       .  S
C847        C848   1.403       .  A
C848        H856   1.084       .  S
C857        C858   1.398       .  A
C857        C862   1.403       .  A
C857        H873   1.083       .  S
C858        C859   1.404       .  A
C858        H874   1.084       .  S
C859        C869   1.399       .  A
C859        C860   1.407       .  A
C860        C866   1.415       .  A
C860        C861   1.413       .  A
C861        C863   1.407       .  A
C861        C862   1.415       .  A
C862        C870   1.407       .  A
C863        C872   1.401       .  A
C863        C864   1.405       .  A
C864        C865   1.400       .  A
C864        H875   1.084       .  S
C865        C866   1.403       .  A
C865        H876   1.083       .  S
C866        C867   1.409       .  A
C867        C868   1.407       .  A
C867        H877   1.084       .  S
C868        C869   1.411       .  A
C869        H878   1.084       .  S
C870        C871   1.405       .  A
C870        H879   1.084       .  S
C871        C872   1.413       .  A
C872        H880   1.084       .  S
C881        C882   1.398       .  A
C881        C886   1.404       .  A
C881        H897   1.084       .  S
C882        C883   1.402       .  A
C882        H898   1.084       .  S
C883        C893   1.404       .  A
C883        C884   1.415       .  A
C884        C890   1.409       .  A
C884        C885   1.409       .  A
C885        C887   1.415       .  A
C885        C886   1.409       .  A
C886        C894   1.398       .  A
C887        C896   1.402       .  A
C887        C888   1.402       .  A
C888        C889   1.397       .  A
C888        H899   1.084       .  S
C889        C890   1.404       .  A
C889        H900   1.084       .  S
C890        C891   1.395       .  A
C891        C892   1.407       .  A
C891        H901   1.085       .  S
C892        C893   1.402       .  A
C893        H902   1.084       .  S
C894        C895   1.409       .  A
C894        H903   1.085       .  S
C895        C896   1.402       .  A
C896        H904   1.085       .  S
C905        C906   1.399       .  A
C905        C910   1.404       .  A
C905        H921   1.084       .  S
C906        C907   1.403       .  A
C906        H922   1.083       .  S
C907        C917   1.405       .  A
C907        C908   1.413       .  A
C908        C914   1.409       .  A
C908        C909   1.412       .  A
C909        C911   1.415       .  A
C909        C910   1.410       .  A
C910        C918   1.400       .  A
C911        C920   1.406       .  A
C911        C912   1.403       .  A
C912        C913   1.399       .  A
C912        H923   1.084       .  S
C913        C914   1.404       .  A
C913        H924   1.084       .  S
C914        C915   1.401       .  A
C915        C916   1.409       .  A
C915        H925   1.084       .  S
C916        C917   1.407       .  A
C917        H926   1.084       .  S
C918        C919   1.404       .  A
C918        H927   1.085       .  S
C919        C920   1.402       .  A
C920        H928   1.084       .  S
C929        C930   1.399       .  A
C929        C934   1.402       .  A
C929        H945   1.083       .  S
C930        C931   1.404       .  A
C930        H946   1.084       .  S
C931        C941   1.401       .  A
C931        C932   1.409       .  A
C932        C938   1.414       .  A
C932        C933   1.414       .  A
C933        C935   1.410       .  A
C933        C934   1.414       .  A
C934        C942   1.406       .  A
C935        C944   1.404       .  A
C935        C936   1.405       .  A
C936        C937   1.401       .  A
C936        H947   1.084       .  S
C937        C938   1.404       .  A
C937        H948   1.083       .  S
C938        C939   1.408       .  A
C939        C940   1.407       .  A
C939        H949   1.084       .  S
C940        C941   1.408       .  A
C941        H950   1.084       .  S
C942        C943   1.403       .  A
C942        H951   1.084       .  S
C943        C944   1.409       .  A
C944        H952   1.085       .  S
C953        C954   1.404       .  A
C953        C958   1.405       .  A
C953        H969   1.083       .  S
C954        C955   1.406       .  A
C954        H970   1.083       .  S
C955        C965   1.410       .  A
C955        C956   1.411       .  A
C956        C962   1.412       .  A
C956        C957   1.414       .  A
C957        C959   1.410       .  A
C957        C958   1.414       .  A
C958        C966   1.411       .  A
C959        C968   1.399       .  A
C959        C960   1.403       .  A
C960        C961   1.397       .  A
C960        H971   1.084       .  S
C961        C962   1.403       .  A
C961        H972   1.084       .  S
C962        C963   1.401       .  A
C963        C964   1.406       .  A
C963        H973   1.085       .  S
C964        C965   1.410       .  A
C965        H974   1.084       .  S
C966        C967   1.407       .  A
C966        H975   1.084       .  S
C967        C968   1.403       .  A
C968        H976   1.081       .  S
C977        C978   1.401       .  A
C977        C982   1.404       .  A
C977        H993   1.083       .  S
C978        C979   1.405       .  A
C978        H994   1.084       .  S
C979        C989   1.405       .  A
C979        C980   1.409       .  A
C980        C986   1.413       .  A
C980        C981   1.415       .  A
C981        C983   1.408       .  A
C981        C982   1.414       .  A
C982        C990   1.411       .  A
C983        C992   1.402       .  A
C983        C984   1.405       .  A
C984        C985   1.399       .  A
C984        H995   1.084       .  S
C985        C986   1.403       .  A
C985        H996   1.083       .  S
C986        C987   1.407       .  A
C987        C988   1.406       .  A
C987        H997   1.084       .  S
C988        C989   1.412       .  A
C989        H998   1.084       .  S
C990        C991   1.408       .  A
C990        H999   1.084       .  S
C991        C992   1.412       .  A
C992       H1000   1.084       .  S
C1001      C1002   1.398       .  A
C1001      C1006   1.403       .  A
C1001      H1017   1.084       .  S
C1002      C1003   1.404       .  A
C1002      H1018   1.084       .  S
C1003      C1013   1.400       .  A
C1003      C1004   1.409       .  A
C1004      C1010   1.414       .  A
C1004      C1005   1.412       .  A
C1005      C1007   1.409       .  A
C1005      C1006   1.414       .  A
C1006      C1014   1.404       .  A
C1007      C1016   1.401       .  A
C1007      C1008   1.405       .  A
C1008      C1009   1.400       .  A
C1008      H1019   1.084       .  S
C1009      C1010   1.403       .  A
C1009      H1020   1.084       .  S
C1010      C1011   1.406       .  A
C1011      C1012   1.405       .  A
C1011      H1021   1.084       .  S
C1012      C1013   1.409       .  A
C1013      H1022   1.085       .  S
C1014      C1015   1.404       .  A
C1014      H1023   1.084       .  S
C1015      C1016   1.410       .  A
C1016      H1024   1.085       .  S
C1025      C1026   1.398       .  A
C1025      C1030   1.402       .  A
C1025      H1041   1.084       .  S
C1026      C1027   1.404       .  A
C1026      H1042   1.084       .  S
C1027      C1037   1.397       .  A
C1027      C1028   1.406       .  A
C1028      C1034   1.416       .  A
C1028      C1029   1.413       .  A
C1029      C1031   1.407       .  A
C1029      C1030   1.417       .  A
C1030      C1038   1.407       .  A
C1031      C1040   1.400       .  A
C1031      C1032   1.405       .  A
C1032      C1033   1.401       .  A
C1032      H1043   1.084       .  S
C1033      C1034   1.403       .  A
C1033      H1044   1.084       .  S
C1034      C1035   1.412       .  A
C1035      C1036   1.406       .  A
C1035      H1045   1.084       .  S
C1036      C1037   1.411       .  A
C1037      H1046   1.084       .  S
C1038      C1039   1.402       .  A
C1038      H1047   1.084       .  S
C1039      C1040   1.410       .  A
C1040      H1048   1.085       .  S
C1049      C1050   1.400       .  A
C1049      C1054   1.403       .  A
C1049      H1065   1.083       .  S
C1050      C1051   1.404       .  A
C1050      H1066   1.083       .  S
C1051      C1061   1.406       .  A
C1051      C1052   1.412       .  A
C1052      C1058   1.411       .  A
C1052      C1053   1.414       .  A
C1053      C1055   1.412       .  A
C1053      C1054   1.413       .  A
C1054      C1062   1.405       .  A
C1055      C1064   1.406       .  A
C1055      C1056   1.405       .  A
C1056      C1057   1.401       .  A
C1056      H1067   1.084       .  S
C1057      C1058   1.405       .  A
C1057      H1068   1.083       .  S
C1058      C1059   1.406       .  A
C1059      C1060   1.409       .  A
C1059      H1069   1.084       .  S
C1060      C1061   1.406       .  A
C1061      H1070   1.084   1_554  S
C1062      C1063   1.404       .  A
C1062      H1071   1.084       .  S
C1063      C1064   1.407       .  A
C1064      H1072   1.085       .  S
C1073      C1074   1.401       .  A
C1073      C1078   1.403       .  A
C1073      H1089   1.083       .  S
C1074      C1075   1.405       .  A
C1074      H1090   1.084       .  S
C1075      C1085   1.402       .  A
C1075      C1076   1.407       .  A
C1076      C1082   1.416       .  A
C1076      C1077   1.415       .  A
C1077      C1079   1.408       .  A
C1077      C1078   1.416       .  A
C1078      C1086   1.411       .  A
C1079      C1088   1.402       .  A
C1079      C1080   1.405       .  A
C1080      C1081   1.401       .  A
C1080      H1091   1.084       .  S
C1081      C1082   1.403       .  A
C1081      H1092   1.083       .  S
C1082      C1083   1.411       .  A
C1083      C1084   1.406       .  A
C1083      H1093   1.084       .  S
C1084      C1085   1.412       .  A
C1085      H1094   1.084       .  S
C1086      C1087   1.405       .  A
C1086      H1095   1.084       .  S
C1087      C1088   1.409       .  A
C1088      H1096   1.085       .  S
C1097      C1098   1.398       .  A
C1097      C1102   1.403       .  A
C1097      H1113   1.084       .  S
C1098      C1099   1.402       .  A
C1098      H1114   1.084       .  S
C1099      C1109   1.403       .  A
C1099      C1100   1.413       .  A
C1100      C1106   1.409       .  A
C1100      C1101   1.411       .  A
C1101      C1103   1.415       .  A
C1101      C1102   1.410       .  A
C1102      C1110   1.398       .  A
C1103      C1112   1.407       .  A
C1103      C1104   1.403       .  A
C1104      C1105   1.399       .  A
C1104      H1115   1.083       .  S
C1105      C1106   1.404       .  A
C1105      H1116   1.084       .  S
C1106      C1107   1.401       .  A
C1107      C1108   1.409       .  A
C1107      H1117   1.084   1_545  S
C1108      C1109   1.405       .  A
C1109      H1118   1.084       .  S
C1110      C1111   1.404       .  A
C1110      H1119   1.085       .  S
C1111      C1112   1.401       .  A
C1112      H1120   1.084       .  S
C1121      C1122   1.399       .  A
C1121      C1126   1.404       .  A
C1121      H1137   1.084       .  S
C1122      C1123   1.403       .  A
C1122      H1138   1.084       .  S
C1123      C1133   1.404       .  A
C1123      C1124   1.414       .  A
C1124      C1130   1.409       .  A
C1124      C1125   1.410       .  A
C1125      C1127   1.415       .  A
C1125      C1126   1.410       .  A
C1126      C1134   1.399       .  A
C1127      C1136   1.403       .  A
C1127      C1128   1.402       .  A
C1128      C1129   1.398       .  A
C1128      H1139   1.084       .  S
C1129      C1130   1.403       .  A
C1129      H1140   1.083       .  S
C1130      C1131   1.398       .  A
C1131      C1132   1.406       .  A
C1131      H1141   1.084       .  S
C1132      C1133   1.406       .  A
C1133      H1142   1.084       .  S
C1134      C1135   1.403       .  A
C1134      H1143   1.085       .  S
C1135      C1136   1.400       .  A
C1136      H1144   1.084       .  S
C1145      C1146   1.402       .  A
C1145      C1150   1.404       .  A
C1145      H1161   1.083       .  S
C1146      C1147   1.406       .  A
C1146      H1162   1.083       .  S
C1147      C1157   1.406       .  A
C1147      C1148   1.409       .  A
C1148      C1154   1.414       .  A
C1148      C1149   1.416       .  A
C1149      C1151   1.408       .  A
C1149      C1150   1.414       .  A
C1150      C1158   1.412       .  A
C1151      C1160   1.401       .  A
C1151      C1152   1.405       .  A
C1152      C1153   1.399       .  A
C1152      H1163   1.084       .  S
C1153      C1154   1.403       .  A
C1153      H1164   1.084       .  S
C1154      C1155   1.407       .  A
C1155      C1156   1.407       .  A
C1155      H1165   1.084       .  S
C1156      C1157   1.413       .  A
C1157      H1166   1.084       .  S
C1158      C1159   1.408       .  A
C1158      H1167   1.084       .  S
C1159      C1160   1.413       .  A
C1160      H1168   1.084       .  S
C1169      C1170   1.397       .  A
C1169      C1174   1.404       .  A
C1169      H1185   1.083       .  S
C1170      C1171   1.402       .  A
C1170      H1186   1.084       .  S
C1171      C1181   1.402       .  A
C1171      C1172   1.415       .  A
C1172      C1178   1.409       .  A
C1172      C1173   1.408       .  A
C1173      C1175   1.414       .  A
C1173      C1174   1.409       .  A
C1174      C1182   1.396       .  A
C1175      C1184   1.401       .  A
C1175      C1176   1.402       .  A
C1176      C1177   1.397       .  A
C1176      H1187   1.084       .  S
C1177      C1178   1.404       .  A
C1177      H1188   1.083       .  S
C1178      C1179   1.398       .  A
C1179      C1180   1.407       .  A
C1179      H1189   1.084       .  S
C1180      C1181   1.402       .  A
C1181      H1190   1.085       .  S
C1182      C1183   1.407       .  A
C1182      H1191   1.085       .  S
C1183      C1184   1.402       .  A
C1184      H1192   1.085       .  S
C1193      C1194   1.400       .  A
C1193      C1198   1.404       .  A
C1193      H1209   1.084       .  S
C1194      C1195   1.404       .  A
C1194      H1210   1.084       .  S
C1195      C1205   1.408       .  A
C1195      C1196   1.414       .  A
C1196      C1202   1.409       .  A
C1196      C1197   1.412       .  A
C1197      C1199   1.414       .  A
C1197      C1198   1.410       .  A
C1198      C1206   1.402       .  A
C1199      C1208   1.404       .  A
C1199      C1200   1.403       .  A
C1200      C1201   1.398       .  A
C1200      H1211   1.084       .  S
C1201      C1202   1.404       .  A
C1201      H1212   1.084       .  S
C1202      C1203   1.399       .  A
C1203      C1204   1.403       .  A
C1203      H1213   1.082       .  S
C1204      C1205   1.404       .  A
C1205      H1214   1.084       .  S
C1206      C1207   1.408       .  A
C1206      H1215   1.084       .  S
C1207      C1208   1.405       .  A
C1208      H1216   1.084       .  S
C1217      C1218   1.401       .  A
C1217      C1222   1.405       .  A
C1217      H1233   1.084       .  S
C1218      C1219   1.404       .  A
C1218      H1234   1.084       .  S
C1219      C1229   1.410       .  A
C1219      C1220   1.416       .  A
C1220      C1226   1.408       .  A
C1220      C1221   1.413       .  A
C1221      C1223   1.415       .  A
C1221      C1222   1.408       .  A
C1222      C1230   1.402       .  A
C1223      C1232   1.406       .  A
C1223      C1224   1.402       .  A
C1224      C1225   1.398       .  A
C1224      H1235   1.084       .  S
C1225      C1226   1.404       .  A
C1225      H1236   1.084       .  S
C1226      C1227   1.398       .  A
C1227      C1228   1.407       .  A
C1227      H1237   1.085       .  S
C1228      C1229   1.405       .  A
C1229      H1238   1.084       .  S
C1230      C1231   1.411       .  A
C1230      H1239   1.084       .  S
C1231      C1232   1.405       .  A
C1232      H1240   1.084       .  S
C1241      C1242   1.401       .  A
C1241      C1246   1.403       .  A
C1241      H1257   1.084       .  S
C1242      C1243   1.405       .  A
C1242      H1258   1.084       .  S
C1243      C1253   1.402       .  A
C1243      C1244   1.408       .  A
C1244      C1250   1.415       .  A
C1244      C1245   1.414       .  A
C1245      C1247   1.408       .  A
C1245      C1246   1.414       .  A
C1246      C1254   1.409       .  A
C1247      C1256   1.401       .  A
C1247      C1248   1.404       .  A
C1248      C1249   1.400       .  A
C1248      H1259   1.084       .  S
C1249      C1250   1.403       .  A
C1249      H1260   1.083       .  S
C1250      C1251   1.410       .  A
C1251      C1252   1.404       .  A
C1251      H1261   1.084       .  S
C1252      C1253   1.409       .  A
C1253      H1262   1.085       .  S
C1254      C1255   1.407       .  A
C1254      H1263   1.084       .  S
C1255      C1256   1.410       .  A
C1256      H1264   1.084       .  S
C1265      C1266   1.399   1_655  A
C1265      C1270   1.402   1_556  A
C1265      H1281   1.083       .  S
C1266      C1267   1.404       .  A
C1266      H1282   1.084       .  S
C1267      C1277   1.400       .  A
C1267      C1268   1.407   1_465  A
C1268      C1274   1.415       .  A
C1268      C1269   1.415   1_546  A
C1269      C1271   1.407   1_565  A
C1269      C1270   1.415       .  A
C1270      C1278   1.408       .  A
C1271      C1280   1.404   1_545  A
C1271      C1272   1.406       .  A
C1272      C1273   1.402       .  A
C1272      H1283   1.084       .  S
C1273      C1274   1.404   1_554  A
C1273      H1284   1.083       .  S
C1274      C1275   1.412   1_655  A
C1275      C1276   1.408       .  A
C1275      H1285   1.084       .  S
C1276      C1277   1.412   1_545  A
C1277      H1286   1.084       .  S
C1278      C1279   1.405       .  A
C1278      H1287   1.084       .  S
C1279      C1280   1.415       .  A
C1280      H1288   1.084   1_565  S
C1289      C1290   1.401       .  A
C1289      C1294   1.404       .  A
C1289      H1305   1.084       .  S
C1290      C1291   1.405       .  A
C1290      H1306   1.084       .  S
C1291      C1301   1.402   1_655  A
C1291      C1292   1.409   1_655  A
C1292      C1298   1.415   1_545  A
C1292      C1293   1.413   1_445  A
C1293      C1295   1.410       .  A
C1293      C1294   1.415   1_565  A
C1294      C1302   1.408   1_545  A
C1295      C1304   1.400       .  A
C1295      C1296   1.404   1_655  A
C1296      C1297   1.399       .  A
C1296      H1307   1.084       .  S
C1297      C1298   1.403       .  A
C1297      H1308   1.083       .  S
C1298      C1299   1.406   1_565  A
C1299      C1300   1.404       .  A
C1299      H1309   1.084   1_545  S
C1300      C1301   1.411       .  A
C1301      H1310   1.085   1_455  S
C1302      C1303   1.406       .  A
C1302      H1311   1.085       .  S
C1303      C1304   1.408       .  A
C1304      H1312   1.085       .  S
C1313      C1314   1.404       .  A
C1313      C1318   1.405       .  A
C1313      H1329   1.083       .  S
C1314      C1315   1.406       .  A
C1314      H1330   1.084       .  S
C1315      C1325   1.407       .  A
C1315      C1316   1.409       .  A
C1316      C1322   1.414       .  A
C1316      C1317   1.414       .  A
C1317      C1319   1.409       .  A
C1317      C1318   1.415       .  A
C1318      C1326   1.413       .  A
C1319      C1328   1.396       .  A
C1319      C1320   1.402       .  A
C1320      C1321   1.396       .  A
C1320      H1331   1.084       .  S
C1321      C1322   1.401       .  A
C1321      H1332   1.084       .  S
C1322      C1323   1.402       .  A
C1323      C1324   1.403       .  A
C1323      H1333   1.084       .  S
C1324      C1325   1.412       .  A
C1325      H1334   1.084   1_655  S
C1326      C1327   1.408       .  A
C1326      H1335   1.084       .  S
C1327      C1328   1.404       .  A
C1328      H1336   1.085       .  S
C1337      C1338   1.402       .  A
C1337      C1342   1.405       .  A
C1337      H1353   1.083       .  S
C1338      C1339   1.404       .  A
C1338      H1354   1.084       .  S
C1339      C1349   1.410       .  A
C1339      C1340   1.414       .  A
C1340      C1346   1.410       .  A
C1340      C1341   1.415       .  A
C1341      C1343   1.412       .  A
C1341      C1342   1.411       .  A
C1342      C1350   1.408       .  A
C1343      C1352   1.404       .  A
C1343      C1344   1.404       .  A
C1344      C1345   1.399       .  A
C1344      H1355   1.084       .  S
C1345      C1346   1.404       .  A
C1345      H1356   1.084       .  S
C1346      C1347   1.401       .  A
C1347      C1348   1.405       .  A
C1347      H1357   1.080       .  S
C1348      C1349   1.406       .  A
C1349      H1358   1.084       .  S
C1350      C1351   1.409       .  A
C1350      H1359   1.084       .  S
C1351      C1352   1.409       .  A
C1352      H1360   1.085       .  S
C1361      C1362   1.400       .  A
C1361      C1366   1.404       .  A
C1361      H1377   1.083       .  S
C1362      C1363   1.403       .  A
C1362      H1378   1.084       .  S
C1363      C1373   1.408       .  A
C1363      C1364   1.414       .  A
C1364      C1370   1.409       .  A
C1364      C1365   1.416       .  A
C1365      C1367   1.415       .  A
C1365      C1366   1.409       .  A
C1366      C1374   1.403       .  A
C1367      C1376   1.412       .  A
C1367      C1368   1.404       .  A
C1368      C1369   1.402       .  A
C1368      H1379   1.084       .  S
C1369      C1370   1.406       .  A
C1369      H1380   1.084       .  S
C1370      C1371   1.406       .  A
C1371      C1372   1.413       .  A
C1371      H1381   1.084       .  S
C1372      C1373   1.407       .  A
C1373      H1382   1.084       .  S
C1374      C1375   1.408       .  A
C1374      H1383   1.085       .  S
C1375      C1376   1.405       .  A
C1376      H1384   1.084       .  S
C1385      C1386   1.404       .  A
C1385      C1390   1.407       .  A
C1385      H1401   1.084       .  S
C1386      C1387   1.405       .  A
C1386      H1402   1.083       .  S
C1387      C1397   1.417       .  A
C1387      C1388   1.415       .  A
C1388      C1394   1.406   1_565  A
C1388      C1389   1.418       .  A
C1389      C1391   1.415   1_565  A
C1389      C1390   1.408       .  A
C1390      C1398   1.409       .  A
C1391      C1400   1.410       .  A
C1391      C1392   1.403       .  A
C1392      C1393   1.399       .  A
C1392      H1403   1.083       .  S
C1393      C1394   1.405       .  A
C1393      H1404   1.084       .  S
C1394      C1395   1.401   1_545  A
C1395      C1396   1.414       .  A
C1395      H1405   1.084   1_565  S
C1396      C1397   1.410       .  A
C1397      H1406   1.084       .  S
C1398      C1399   1.416   1_565  A
C1398      H1407   1.084       .  S
C1399      C1400   1.407       .  A
C1400      H1408   1.084       .  S
C1409      C1410   1.397       .  A
C1409      C1414   1.404       .  A
C1409      H1425   1.084       .  S
C1410      C1411   1.402   1_564  A
C1410      H1426   1.083       .  S
C1411      C1421   1.403       .  A
C1411      C1412   1.414       .  A
C1412      C1418   1.409       .  A
C1412      C1413   1.411   1_546  A
C1413      C1415   1.415       .  A
C1413      C1414   1.408       .  A
C1414      C1422   1.397       .  A
C1415      C1424   1.407       .  A
C1415      C1416   1.403   1_565  A
C1416      C1417   1.400   1_554  A
C1416      H1427   1.084       .  S
C1417      C1418   1.405       .  A
C1417      H1428   1.084       .  S
C1418      C1419   1.401       .  A
C1419      C1420   1.410       .  A
C1419      H1429   1.085       .  S
C1420      C1421   1.404       .  A
C1421      H1430   1.084       .  S
C1422      C1423   1.409       .  A
C1422      H1431   1.085       .  S
C1423      C1424   1.406       .  A
C1424      H1432   1.084       .  S
C1433      C1434   1.402       .  A
C1433      C1438   1.405       .  A
C1433      H1449   1.083       .  S
C1434      C1435   1.404       .  A
C1434      H1450   1.083       .  S
C1435      C1445   1.408       .  A
C1435      C1436   1.414       .  A
C1436      C1442   1.411       .  A
C1436      C1437   1.412       .  A
C1437      C1439   1.412       .  A
C1437      C1438   1.411       .  A
C1438      C1446   1.407       .  A
C1439      C1448   1.400       .  A
C1439      C1440   1.403       .  A
C1440      C1441   1.397       .  A
C1440      H1451   1.083       .  S
C1441      C1442   1.403       .  A
C1441      H1452   1.084       .  S
C1442      C1443   1.399       .  A
C1443      C1444   1.403       .  A
C1443      H1453   1.085       .  S
C1444      C1445   1.404       .  A
C1445      H1454   1.084       .  S
C1446      C1447   1.408       .  A
C1446      H1455   1.084       .  S
C1447      C1448   1.406       .  A
C1448      H1456   1.085       .  S
C1457      C1458   1.398       .  A
C1457      C1462   1.403       .  A
C1457      H1473   1.084       .  S
C1458      C1459   1.404       .  A
C1458      H1474   1.084       .  S
C1459      C1469   1.400       .  A
C1459      C1460   1.410       .  A
C1460      C1466   1.414       .  A
C1460      C1461   1.412       .  A
C1461      C1463   1.410       .  A
C1461      C1462   1.413       .  A
C1462      C1470   1.403       .  A
C1463      C1472   1.403       .  A
C1463      C1464   1.405       .  A
C1464      C1465   1.400       .  A
C1464      H1475   1.084       .  S
C1465      C1466   1.403       .  A
C1465      H1476   1.084       .  S
C1466      C1467   1.406       .  A
C1467      C1468   1.403       .  A
C1467      H1477   1.084       .  S
C1468      C1469   1.406       .  A
C1469      H1478   1.085       .  S
C1470      C1471   1.404       .  A
C1470      H1479   1.084       .  S
C1471      C1472   1.409       .  A
C1472      H1480   1.084       .  S
C1481      C1482   1.399       .  A
C1481      C1486   1.404       .  A
C1481      H1497   1.084       .  S
C1482      C1483   1.402       .  A
C1482      H1498   1.084       .  S
C1483      C1493   1.406       .  A
C1483      C1484   1.415       .  A
C1484      C1490   1.409       .  A
C1484      C1485   1.413       .  A
C1485      C1487   1.415       .  A
C1485      C1486   1.408       .  A
C1486      C1494   1.400       .  A
C1487      C1496   1.410       .  A
C1487      C1488   1.404       .  A
C1488      C1489   1.401       .  A
C1488      H1499   1.084       .  S
C1489      C1490   1.405       .  A
C1489      H1500   1.084       .  S
C1490      C1491   1.402       .  A
C1491      C1492   1.409       .  A
C1491      H1501   1.085       .  S
C1492      C1493   1.403       .  A
C1493      H1502   1.084       .  S
C1494      C1495   1.409       .  A
C1494      H1503   1.085       .  S
C1495      C1496   1.406       .  A
C1496      H1504   1.084       .  S
