geometry optimzed in LAMMPS
_audit_creation_date              2020-12-01 
_audit_creation_method            'lammps2cif' 
_symmetry_space_group_name_H-M    'P1' 
_symmetry_Int_Tables_number       1 
_symmetry_cell_setting            triclinic 
loop_ 
_symmetry_equiv_pos_as_xyz 
  x,y,z 
_cell_length_a                    61.98705634 
_cell_length_b                    61.880237662866186 
_cell_length_c                    45.23862749543406 
_cell_angle_alpha                 89.79908963192155 
_cell_angle_beta                  89.90339403410559 
_cell_angle_gamma                 120.05325448932756 
loop_ 
_atom_site_label 
_atom_site_type_symbol 
_atom_site_fract_x 
_atom_site_fract_y 
_atom_site_fract_z 
_atom_site_charge 
Fe1        Fe  0.11103638  0.23625260  0.28818994     1.65800
Fe2        Fe  0.16208074  0.23142565  0.27234828     1.73200
Fe3        Fe  0.11301645  0.18577395  0.31184911     1.54400
O4          O  0.10162124  0.20057656  0.34562802    -0.83100
O5          O  0.15404811  0.19739162  0.25496572    -0.81500
O6          O  0.11116969  0.23945771  0.33324481    -0.85700
O7          O  0.07573868  0.20553433  0.29009205    -0.80500
O8          O  0.14478568  0.19649486  0.33606571    -0.82300
O9          O  0.14885184  0.23850790  0.23332323    -0.85000
C10         C  0.06625335  0.18223688  0.28701302     0.95700
C11         C  0.10540206  0.22223568  0.35224578     1.03200
O12         O  0.12898036  0.21778764  0.29080433    -1.14000
O13         O  0.17583905  0.26774769  0.28735160    -0.76400
O14         O  0.14202696  0.27102060  0.28612434    -0.79900
O15         O  0.07924382  0.17171876  0.28938677    -0.80600
C16         C  0.16534546  0.28077989  0.28854345     0.94600
O17         O  0.11085954  0.23306564  0.24322699    -0.78600
O18         O  0.17745899  0.22473762  0.30954582    -0.83800
C19         C  0.14000287  0.17450152  0.26153207     0.97300
C20         C  0.16803882  0.21094346  0.33226847     1.03200
O21         O  0.12355497  0.16739618  0.28175026    -0.79400
C22         C  0.12777916  0.23550734  0.22523484     1.01500
Fe23       Fe  0.20819475  0.43277363  0.30441164     1.65800
Fe24       Fe  0.26442961  0.43811261  0.31895979     1.73200
Fe25       Fe  0.26031392  0.48410357  0.28129635     1.54400
O26         O  0.23400161  0.46975391  0.24797337    -0.83100
O27         O  0.29056111  0.47201958  0.33622848    -0.81500
O28         O  0.20519043  0.43038428  0.25930230    -0.85700
O29         O  0.20324912  0.46329095  0.30360227    -0.80500
O30         O  0.28162700  0.47413804  0.25601307    -0.82300
O31         O  0.24452288  0.43074815  0.35854854    -0.85000
C32         C  0.21675844  0.48661891  0.30681533     0.95700
C33         C  0.21648442  0.44811394  0.24082953     1.03200
O34         O  0.24460118  0.45169631  0.30158210    -1.14000
O35         O  0.24197002  0.40178846  0.30401032    -0.76400
O36         O  0.20473304  0.39810305  0.30554051    -0.79900
O37         O  0.24030819  0.49744270  0.30462380    -0.80600
C38         C  0.21846692  0.38853083  0.30317322     0.94600
O39         O  0.21124303  0.43516045  0.34941660    -0.78600
O40         O  0.28605599  0.44525297  0.28104938    -0.83800
C41         C  0.29915680  0.49497235  0.33032369     0.97300
C42         C  0.29047696  0.45962614  0.25885835     1.03200
O43         O  0.28932659  0.50230884  0.31108262    -0.79400
C44         C  0.22608546  0.43304213  0.36708414     1.01500
Fe45       Fe  0.54343252  0.45368238  0.13492301     1.65800
Fe46       Fe  0.54305407  0.40176783  0.11181512     1.73200
Fe47       Fe  0.49341516  0.39671611  0.15161412     1.54400
O48         O  0.50636964  0.41691837  0.19067485    -0.83100
O49         O  0.51115457  0.37921072  0.08828713    -0.81500
O50         O  0.54318776  0.45105874  0.18006376    -0.85700
O51         O  0.51164940  0.45601371  0.13561085    -0.80500
O52         O  0.50243048  0.37124325  0.16859851    -0.82300
O53         O  0.55334994  0.42745359  0.07753988    -0.85000
C54         C  0.48829237  0.44187227  0.13486175     0.95700
C55         C  0.52686529  0.43602366  0.19833788     1.03200
O56         O  0.52638231  0.41713905  0.13273423    -1.14000
O57         O  0.57708364  0.42274744  0.13346143    -0.76400
O58         O  0.57916576  0.45947645  0.13431190    -0.79900
O59         O  0.47833977  0.41842299  0.13751034    -0.80600
C60         C  0.58937733  0.44626822  0.13656086     0.94600
O61         O  0.54417081  0.45697448  0.08973480    -0.78600
O62         O  0.53383748  0.37338231  0.14236854    -0.83800
C63         C  0.48783658  0.36989880  0.09209911     0.97300
C64         C  0.51715653  0.36326379  0.16220020     1.03200
O65         O  0.47827342  0.37458999  0.11436007    -0.79400
C66         C  0.55008532  0.44564604  0.07088573     1.01500
Fe67       Fe  0.44467056  0.55012717  0.12301066     1.65800
Fe68       Fe  0.38822360  0.49955373  0.10780868     1.73200
Fe69       Fe  0.39283405  0.54943524  0.14628793     1.54400
O70         O  0.41883537  0.56058687  0.17994517    -0.83100
O71         O  0.36284990  0.50829566  0.09005953    -0.81500
O72         O  0.44782437  0.55052269  0.16818839    -0.85700
O73         O  0.45012601  0.58575003  0.12403765    -0.80500
O74         O  0.37085344  0.51778739  0.17092625    -0.82300
O75         O  0.40858144  0.51231354  0.06842771    -0.85000
C76         C  0.43680502  0.59575430  0.12105579     0.95700
C77         C  0.43669541  0.55692463  0.18681392     1.03200
O78         O  0.40828728  0.53274869  0.12578831    -1.14000
O79         O  0.41015465  0.48501545  0.12303063    -0.76400
O80         O  0.44750182  0.51860017  0.12157764    -0.79900
O81         O  0.41327499  0.58316745  0.12350572    -0.80600
C82         C  0.43367841  0.49521542  0.12359948     0.94600
O83         O  0.44167132  0.55006684  0.07793954    -0.78600
O84         O  0.36589954  0.48466043  0.14527119    -0.83800
C85         C  0.35472679  0.52296272  0.09617768     0.97300
C86         C  0.36146120  0.49439777  0.16754414     1.03200
O87         O  0.36438597  0.53947514  0.11608778    -0.79400
C88         C  0.42694763  0.53326638  0.06008786     1.01500
Fe89       Fe  0.23038846  0.11947462  0.46567240     1.65800
Fe90       Fe  0.22499301  0.17022582  0.48174555     1.73200
Fe91       Fe  0.17965014  0.12106494  0.44266220     1.54400
O92         O  0.19440532  0.10976018  0.40877164    -0.83100
O93         O  0.19145753  0.16203092  0.99951561    -0.81500
O94         O  0.23329359  0.11939599  0.42060390    -0.85700
O95         O  0.19986311  0.08403299  0.46448845    -0.80500
O96         O  0.19004807  0.15290186  0.41825587    -0.82300
O97         O  0.23264987  0.15672471  0.02065099    -0.85000
C98         C  0.17660038  0.07442816  0.46788407     0.95700
C99         C  0.21594550  0.11338371  0.40194227     1.03200
O100        O  0.21167757  0.13720918  0.46329790    -1.14000
O101        O  0.26145171  0.18452365  0.46648900    -0.76400
O102        O  0.26500542  0.15079243  0.46692683    -0.79900
O103        O  0.16595225  0.08730192  0.46548451    -0.80600
C104        C  0.27463534  0.17419374  0.46487840     0.94600
O105        O  0.22727979  0.11872417  0.01061606    -0.78600
O106        O  0.21798462  0.18556512  0.44470916    -0.83800
C107        C  0.16801531  0.14769289  0.49300722     0.97300
C108        C  0.20417183  0.17619874  0.42217016     1.03200
O109        O  0.16110889  0.13138863  0.47278680    -0.79400
C110        C  0.22952703  0.13550194  0.02864093     1.01500
Fe111      Fe  0.42715926  0.21767900  0.45430278     1.65800
Fe112      Fe  0.43285877  0.27430467  0.43976394     1.73200
Fe113      Fe  0.47786248  0.26955149  0.47836469     1.54400
O114        O  0.46461303  0.24359257  0.01153174    -0.83100
O115        O  0.46708630  0.30075100  0.42307818    -0.81500
O116        O  0.42378507  0.21395492  0.49933355    -0.85700
O117        O  0.45771661  0.21274413  0.45565756    -0.80500
O118        O  0.46847671  0.29105263  0.00349070    -0.82300
O119        O  0.42637292  0.25482472  0.40004157    -0.85000
C120        C  0.48099690  0.22652283  0.45224826     0.95700
C121        C  0.44305645  0.22562882  0.01837669     1.03200
O122        O  0.44595726  0.25413362  0.45747700    -1.14000
O123        O  0.39612976  0.25156301  0.45372865    -0.76400
O124        O  0.39250821  0.21427259  0.45238000    -0.79900
O125        O  0.49161680  0.25006184  0.45473224    -0.80600
C126        C  0.38284004  0.22799121  0.45409935     0.94600
O127        O  0.43043249  0.22127461  0.40936261    -0.78600
O128        O  0.43923592  0.29546559  0.47798488    -0.83800
C129        C  0.48985499  0.30940167  0.42959289     0.97300
C130        C  0.45295655  0.29930873  0.50059177     1.03200
O131        O  0.49671398  0.29936038  0.44916631    -0.79400
C132        C  0.42856499  0.23628365  0.39160482     1.01500
Fe133      Fe  0.54217887  0.09779667  0.38517196     1.65800
Fe134      Fe  0.54373302  0.14986913  0.36174129     1.73200
Fe135      Fe  0.49328082  0.10601185  0.40061490     1.54400
O136        O  0.47772561  0.06968677  0.38476091    -0.83100
O137        O  0.53318804  0.16917032  0.39040799    -0.81500
O138        O  0.50992300  0.06385839  0.38867914    -0.85700
O139        O  0.54302289  0.10175075  0.42994442    -0.80500
O140        O  0.47952880  0.11475595  0.36333591    -0.82300
O141        O  0.57622260  0.16192940  0.38631790    -0.85000
C142        C  0.52624711  0.09979396  0.44784223     0.95700
C143        C  0.48677196  0.05535701  0.38593334     1.03200
O144        O  0.52604954  0.11790845  0.38246805    -1.14000
O145        O  0.55551825  0.13449102  0.32910882    -0.76400
O146        O  0.54135192  0.09426122  0.34011919    -0.79900
O147        O  0.50532151  0.09719991  0.43966421    -0.80600
C148        C  0.54943165  0.11227075  0.32175931     0.94600
O149        O  0.57823414  0.12740534  0.38249505    -0.78600
O150        O  0.51300584  0.14042799  0.33593192    -0.83800
C151        C  0.51722729  0.16293776  0.41106955     0.97300
C152        C  0.48958611  0.12770095  0.34013138     1.03200
O153        O  0.50317546  0.14032946  0.41878772    -0.79400
C154        C  0.58845909  0.15054472  0.38767102     1.01500
Fe155      Fe  0.44371883  0.90477787  0.37270720     1.65800
Fe156      Fe  0.39155739  0.85242428  0.39468528     1.73200
Fe157      Fe  0.38711805  0.89775677  0.35525423     1.54400
O158        O  0.40849112  0.93443517  0.36964313    -0.83100
O159        O  0.36378134  0.83368059  0.36351064    -0.81500
O160        O  0.44599729  0.93890363  0.37377128    -0.85700
O161        O  0.44218515  0.90372721  0.32749718    -0.80500
O162        O  0.36478048  0.89050078  0.39235455    -0.82300
O163        O  0.41300804  0.83965703  0.37334863    -0.85000
C164        C  0.42712216  0.90451201  0.30904243     0.95700
C165        C  0.43166800  0.94788461  0.37405585     1.03200
O166        O  0.40723668  0.88495806  0.37422694    -1.14000
O167        O  0.41642018  0.86715761  0.42960975    -0.76400
O168        O  0.44618638  0.90599427  0.41781918    -0.79900
O169        O  0.40766576  0.90532028  0.31643495    -0.80600
C170        C  0.43459387  0.88851300  0.43644323     0.94600
O171        O  0.44925737  0.87483702  0.37201152    -0.78600
O172        O  0.36882356  0.86164202  0.41802238    -0.83800
C173        C  0.35398809  0.84061242  0.34373677     0.97300
C174        C  0.35994619  0.87605831  0.41452089     1.03200
O175        O  0.36195088  0.86346442  0.33791668    -0.79400
C176        C  0.43650183  0.85135978  0.36993157     1.01500
Fe177      Fe  0.22962012  0.11919568  0.21540668     1.65800
Fe178      Fe  0.17806735  0.06708573  0.19355543     1.73200
Fe179      Fe  0.22373531  0.06274901  0.23157182     1.54400
O180        O  0.26045980  0.08501751  0.21719798    -0.83100
O181        O  0.15971005  0.03875076  0.22420213    -0.81500
O182        O  0.26409275  0.12230903  0.21623432    -0.85700
O183        O  0.22762147  0.11678635  0.26053955    -0.80500
O184        O  0.21693783  0.04111750  0.19384179    -0.82300
O185        O  0.16496786  0.08757491  0.21618008    -0.85000
C186        C  0.22926063  0.10186985  0.27868431     0.95700
C187        C  0.27374271  0.10855456  0.21559748     1.03200
O188        O  0.21047154  0.08274178  0.21353360    -1.14000
O189        O  0.19245482  0.09279360  0.15925068    -0.76400
O190        O  0.23167185  0.12175375  0.17022627    -0.79900
O191        O  0.23075097  0.08282922  0.27076325    -0.80600
C192        C  0.21400319  0.11046826  0.15191357     0.94600
O193        O  0.19935107  0.12446117  0.21494363    -0.78600
O194        O  0.18780971  0.04526077  0.16921367    -0.83800
C195        C  0.16677478  0.02878600  0.24354656     0.97300
C196        C  0.20252049  0.03664665  0.17182859     1.03200
O197        O  0.18961974  0.03677483  0.24894723    -0.79400
C198        C  0.17604074  0.11114120  0.21842706     1.01500
Fe199      Fe  0.42606625  0.21762102  0.20452032     1.65800
Fe200      Fe  0.47712496  0.21677695  0.22748464     1.73200
Fe201      Fe  0.43176408  0.16687342  0.18932544     1.54400
O202        O  0.39530533  0.15253012  0.20458152    -0.83100
O203        O  0.49543311  0.20600223  0.19786934    -0.81500
O204        O  0.39151289  0.18613121  0.20387290    -0.85700
O205        O  0.42866119  0.21720776  0.15945861    -0.80500
O206        O  0.43918640  0.15222089  0.22688172    -0.82300
O207        O  0.49061967  0.25004601  0.20394261    -0.85000
C208        C  0.42671924  0.20040319  0.14167738     0.95700
C209        C  0.38200595  0.16274126  0.20602720     1.03200
O210        O  0.44496567  0.20012599  0.20715052    -1.14000
O211        O  0.46275883  0.22878981  0.26091854    -0.76400
O212        O  0.42354827  0.21830516  0.24965737    -0.79900
O213        O  0.42422943  0.17952150  0.15005333    -0.80600
C214        C  0.44120189  0.22490869  0.26803700     0.94600
O215        O  0.45661741  0.25315093  0.20508749    -0.78600
O216        O  0.46694957  0.18549213  0.25267104    -0.83800
C217        C  0.48858946  0.18950689  0.17794034     0.97300
C218        C  0.45304814  0.16211102  0.24931577     1.03200
O219        O  0.46581816  0.17527450  0.17142651    -0.79400
C220        C  0.47992301  0.26286535  0.20181953     1.01500
Fe221      Fe  0.10965815  0.88354476  0.03833932     1.65800
Fe222      Fe  0.11246434  0.93657030  0.06143476     1.73200
Fe223      Fe  0.16096066  0.93930605  0.02165095     1.54400
O224        O  0.17447820  0.91649191  0.03681458    -0.83100
O225        O  0.12337697  0.96552673  0.03128823    -0.81500
O226        O  0.14046638  0.87937070  0.03709459    -0.85700
O227        O  0.10962507  0.88603637  0.49318722    -0.80500
O228        O  0.17669512  0.96167757  0.05846519    -0.82300
O229        O  0.07858656  0.91720641  0.03933744    -0.85000
C230        C  0.12660955  0.90037004  0.47507353     0.95700
C231        C  0.16387781  0.89291693  0.03866244     1.03200
O232        O  0.12793679  0.92007237  0.04045410    -1.14000
O233        O  0.10044850  0.91033854  0.09526366    -0.76400
O234        O  0.10929267  0.88053022  0.08353429    -0.79900
O235        O  0.14753325  0.91873394  0.48300046    -0.80600
C236        C  0.10342842  0.89202168  0.10221969     0.94600
O237        O  0.07469270  0.87966270  0.03959013    -0.78600
O238        O  0.14442907  0.95754987  0.08542686    -0.83800
C239        C  0.13956302  0.97469763  0.01080009     0.97300
C240        C  0.16762346  0.96646195  0.08109706     1.03200
O241        O  0.15316433  0.96550336  0.00380429    -0.79400
C242        C  0.06539840  0.89368604  0.03710041     1.01500
Fe243      Fe  0.20861317  0.78461359  0.05119652     1.65800
Fe244      Fe  0.26109771  0.78648279  0.02797893     1.73200
Fe245      Fe  0.26450100  0.83580304  0.06646959     1.54400
O246        O  0.24154056  0.84944203  0.05213023    -0.83100
O247        O  0.29031800  0.79757782  0.05737018    -0.81500
O248        O  0.20450845  0.81543725  0.05228858    -0.85700
O249        O  0.21115602  0.78487310  0.09627741    -0.80500
O250        O  0.28593472  0.85097018  0.02854474    -0.82300
O251        O  0.24172571  0.75295402  0.05124036    -0.85000
C252        C  0.22578837  0.80175056  0.11412133     0.95700
C253        C  0.21799895  0.83887670  0.05079130     1.03200
O254        O  0.24502262  0.80254984  0.04866310    -1.14000
O255        O  0.23452773  0.77385744  0.49500249    -0.76400
O256        O  0.20589474  0.78443134  0.00612039    -0.79900
O257        O  0.24454296  0.82245256  0.10584950    -0.80600
C258        C  0.21721682  0.77824179  0.48780007     0.94600
O259        O  0.20447327  0.74952791  0.05034909    -0.78600
O260        O  0.28168761  0.81807299  0.00291294    -0.83800
C261        C  0.29993251  0.81429787  0.07703904     0.97300
C262        C  0.29025852  0.84136152  0.00606207     1.03200
O263        O  0.29108893  0.82831088  0.08350133    -0.79400
C264        C  0.21820703  0.73998263  0.05349684     1.01500
Fe265      Fe  0.20968009  0.78692721  0.30150213     1.65800
Fe266      Fe  0.15947101  0.73082737  0.31854851     1.73200
Fe267      Fe  0.20803918  0.73487504  0.27814091     1.54400
O268        O  0.21971588  0.76154089  0.24476436    -0.83100
O269        O  0.16878528  0.70607105  0.33716131    -0.81500
O270        O  0.20825266  0.78950739  0.25650169    -0.85700
O271        O  0.24509541  0.79182556  0.29802763    -0.80500
O272        O  0.17640067  0.71414060  0.25377087    -0.82300
O273        O  0.17273300  0.75231400  0.35668202    -0.85000
C274        C  0.25458542  0.77809707  0.30207755     0.95700
C275        C  0.21483772  0.77862276  0.23780787     1.03200
O276        O  0.19209258  0.75055022  0.29938440    -1.14000
O277        O  0.14495200  0.75243524  0.30250239    -0.76400
O278        O  0.17825439  0.78994090  0.30533555    -0.79900
O279        O  0.24149011  0.75450170  0.30098648    -0.80600
C280        C  0.15493401  0.77597727  0.30287298     0.94600
O281        O  0.21111812  0.78420069  0.34635144    -0.78600
O282        O  0.14399456  0.70753785  0.28225895    -0.83800
C283        C  0.18205636  0.69674850  0.32924038     0.97300
C284        C  0.15316971  0.70402112  0.25878879     1.03200
O285        O  0.19729764  0.70551084  0.30774334    -0.79400
C286        C  0.19404108  0.77017126  0.36452164     1.01500
Fe287      Fe  0.11147100  0.88382389  0.28800894     1.65800
Fe288      Fe  0.05486273  0.83331793  0.27384776     1.73200
Fe289      Fe  0.06013593  0.88372220  0.31162036     1.54400
O290        O  0.08680563  0.89577233  0.34451837    -0.83100
O291        O  0.02966342  0.84217497  0.25581663    -0.81500
O292        O  0.11472956  0.88422075  0.33305440    -0.85700
O293        O  0.11683430  0.91940074  0.28890994    -0.80500
O294        O  0.03904569  0.85273587  0.33739441    -0.82300
O295        O  0.07508057  0.84541904  0.23426689    -0.85000
C296        C  0.10345781  0.92930820  0.28549773     0.95700
C297        C  0.10390818  0.89103984  0.35156652     1.03200
O298        O  0.07518126  0.86665641  0.29117307    -1.14000
O299        O  0.07674498  0.81892458  0.28955812    -0.76400
O300        O  0.11423695  0.85227716  0.28693479    -0.79900
O301        O  0.07993999  0.91670208  0.28762549    -0.80600
C302        C  0.10026020  0.82903747  0.29034766     0.94600
O303        O  0.10806619  0.88345617  0.24309113    -0.78600
O304        O  0.03278088  0.81913687  0.31174643    -0.83800
C305        C  0.02141678  0.85667881  0.26228385     0.97300
C306        C  0.02929917  0.82928916  0.33435541     1.03200
O307        O  0.03103936  0.87304630  0.28232480    -0.79400
C308        C  0.09321775  0.86640072  0.22560423     1.01500
Fe309      Fe  0.89557665  0.45131711  0.13597366     1.65800
Fe310      Fe  0.89044815  0.50230922  0.15150364     1.73200
Fe311      Fe  0.84446717  0.45248531  0.11389256     1.54400
O312        O  0.85825830  0.44003600  0.08049647    -0.83100
O313        O  0.85641298  0.49458043  0.16912946    -0.81500
O314        O  0.89772021  0.45096870  0.09072901    -0.85700
O315        O  0.86484493  0.41599006  0.13526122    -0.80500
O316        O  0.85485202  0.48392973  0.08861837    -0.82300
O317        O  0.89749915  0.48917033  0.19071875    -0.85000
C318        C  0.84159386  0.40628553  0.13900440     0.95700
C319        C  0.87971843  0.44404808  0.07275892     1.03200
O320        O  0.87683654  0.46899224  0.13386371    -1.14000
O321        O  0.92711274  0.51624683  0.13690854    -0.76400
O322        O  0.93039118  0.48237412  0.13709704    -0.79900
O323        O  0.83091055  0.41915541  0.13740012    -0.80600
C324        C  0.94025367  0.50582498  0.13596314     0.94600
O325        O  0.89354581  0.45166781  0.18113261    -0.78600
O326        O  0.88363487  0.51719372  0.11357180    -0.83800
C327        C  0.83354475  0.48018523  0.16313982     0.97300
C328        C  0.86945040  0.50730835  0.09133897     1.03200
O329        O  0.82647235  0.46335935  0.14364840    -0.79400
C330        C  0.89583106  0.46858865  0.19899245     1.01500
Fe331      Fe  0.09351744  0.55051705  0.12578044     1.65800
Fe332      Fe  0.09826860  0.60650980  0.10962526     1.73200
Fe333      Fe  0.14439550  0.60341267  0.14810431     1.54400
O334        O  0.13010464  0.57786392  0.18247601    -0.83100
O335        O  0.13234230  0.63287607  0.09225856    -0.81500
O336        O  0.09149603  0.54774469  0.17095889    -0.85700
O337        O  0.12430487  0.54610649  0.12588789    -0.80500
O338        O  0.13415609  0.62511761  0.17205886    -0.82300
O339        O  0.09160210  0.58661670  0.07054751    -0.85000
C340        C  0.14762304  0.55991099  0.12309390     0.95700
C341        C  0.10876169  0.55969994  0.18954697     1.03200
O342        O  0.11205958  0.58705019  0.12784737    -1.14000
O343        O  0.06169219  0.58364067  0.12413946    -0.76400
O344        O  0.05857680  0.54655032  0.12563675    -0.79900
O345        O  0.15826458  0.58338594  0.12604365    -0.80600
C346        C  0.04870894  0.56011930  0.12666209     0.94600
O347        O  0.09559570  0.55313441  0.08057474    -0.78600
O348        O  0.10454176  0.62811594  0.14705685    -0.83800
C349        C  0.15527277  0.64114124  0.09758165     0.97300
C350        C  0.11908822  0.63325220  0.16901177     1.03200
O351        O  0.16253843  0.63155666  0.11717786    -0.79400
C352        C  0.09377299  0.56801897  0.06257376     1.01500
Fe353      Fe  0.78049133  0.57190135  0.45493125     1.65800
Fe354      Fe  0.83044909  0.56536557  0.43973033     1.73200
Fe355      Fe  0.78071922  0.52090457  0.47936241     1.54400
O356        O  0.77007901  0.53646650  0.01260373    -0.83100
O357        O  0.82102788  0.53101416  0.42180584    -0.81500
O358        O  0.78142240  0.57595587  0.49977177    -0.85700
O359        O  0.74477860  0.54187136  0.45786586    -0.80500
O360        O  0.81235760  0.53056786  0.00388334    -0.82300
O361        O  0.81783675  0.57353690  0.40059816    -0.85000
C362        C  0.73487849  0.51862174  0.45387757     0.95700
C363        C  0.77508903  0.55857566  0.01897649     1.03200
O364        O  0.79753994  0.55267822  0.45804173    -1.14000
O365        O  0.84521866  0.60184163  0.45540998    -0.76400
O366        O  0.81209081  0.60608239  0.45154293    -0.79900
O367        O  0.74748890  0.50766547  0.45583514    -0.80600
C368        C  0.83527498  0.61543618  0.45500663     0.94600
O369        O  0.77970524  0.56781090  0.41022240    -0.78600
O370        O  0.84504630  0.55727976  0.47697235    -0.83800
C371        C  0.80698641  0.50832992  0.42936273     0.97300
C372        C  0.83533415  0.54404346  0.50010682     1.03200
O373        O  0.79116044  0.50191896  0.45020741    -0.79400
C374        C  0.79672792  0.57043310  0.39231134     1.01500
Fe375      Fe  0.87628464  0.76674165  0.47115293     1.65800
Fe376      Fe  0.93280951  0.77335446  0.48712286     1.73200
Fe377      Fe  0.92796436  0.81807765  0.44757059     1.54400
O378        O  0.90150508  0.80342112  0.41437543    -0.83100
O379        O  0.95729408  0.80773013  0.00447736    -0.81500
O380        O  0.87342175  0.76395830  0.42605131    -0.85700
O381        O  0.87101312  0.79715175  0.46994588    -0.80500
O382        O  0.94914810  0.80796543  0.42250723    -0.82300
O383        O  0.91202619  0.76495098  0.02537380    -0.85000
C384        C  0.88458510  0.82048862  0.47334168     0.95700
C385        C  0.88428057  0.78159637  0.40740482     1.03200
O386        O  0.91263694  0.78606491  0.46860779    -1.14000
O387        O  0.91156066  0.73706472  0.47119235    -0.76400
O388        O  0.87387639  0.73245639  0.47253971    -0.79900
O389        O  0.90809876  0.83135026  0.47097808    -0.80600
C390        C  0.88807588  0.72338252  0.46995360     0.94600
O391        O  0.87896948  0.76957180  0.01607089    -0.78600
O392        O  0.95586892  0.78175716  0.45013180    -0.83800
C393        C  0.96600835  0.83017847  0.49809418     0.97300
C394        C  0.95937242  0.79485925  0.42690638     1.03200
O395        O  0.95699200  0.83666722  0.47699711    -0.79400
C396        C  0.89362482  0.76731041  0.03385347     1.01500
Fe397      Fe  0.87765375  0.76736496  0.22113485     1.65800
Fe398      Fe  0.87578013  0.81787802  0.19769725     1.73200
Fe399      Fe  0.82667268  0.77203815  0.23675302     1.54400
O400        O  0.81308835  0.73619411  0.22026952    -0.83100
O401        O  0.86497020  0.83581856  0.22796754    -0.81500
O402        O  0.84667029  0.73266075  0.22381157    -0.85700
O403        O  0.87808318  0.77082580  0.26602250    -0.80500
O404        O  0.81152615  0.77985877  0.19993122    -0.82300
O405        O  0.90928278  0.83175036  0.22042591    -0.85000
C406        C  0.86075397  0.76745945  0.28387952     0.95700
C407        C  0.82347808  0.72303736  0.22017665     1.03200
O408        O  0.85975529  0.78580621  0.21847550    -1.14000
O409        O  0.88745481  0.80325445  0.16400643    -0.76400
O410        O  0.87738916  0.76411931  0.17611813    -0.79900
O411        O  0.83946833  0.76378089  0.27555288    -0.80600
C412        C  0.88359186  0.78157616  0.15731301     0.94600
O413        O  0.91277373  0.79797770  0.21863867    -0.78600
O414        O  0.84428697  0.80749316  0.17310089    -0.83800
C415        C  0.84890074  0.82863428  0.24863325     0.97300
C416        C  0.82099787  0.79357501  0.17711918     1.03200
O417        O  0.83506877  0.80574565  0.25536991    -0.79400
C418        C  0.92229208  0.82123465  0.22191982     1.01500
Fe419      Fe  0.78028467  0.57101627  0.20539403     1.65800
Fe420      Fe  0.72737986  0.52054281  0.22858195     1.73200
Fe421      Fe  0.72459720  0.56619244  0.18854803     1.54400
O422        O  0.74678417  0.60228056  0.20426847    -0.83100
O423        O  0.69833052  0.50251901  0.19863702    -0.81500
O424        O  0.78400210  0.60576305  0.20375161    -0.85700
O425        O  0.77832251  0.56874552  0.16036094    -0.80500
O426        O  0.70156662  0.55887281  0.22520898    -0.82300
O427        O  0.74693683  0.50629731  0.20611175    -0.85000
C428        C  0.76440793  0.57177663  0.14216206     0.95700
C429        C  0.77029525  0.61541084  0.20565855     1.03200
O430        O  0.74381259  0.55254272  0.20746123    -1.14000
O431        O  0.75349299  0.53475176  0.26234755    -0.76400
O432        O  0.78296154  0.57367826  0.25044800    -0.79900
O433        O  0.74585086  0.57409176  0.15002430    -0.80600
C434        C  0.77154275  0.55621252  0.26915098     0.94600
O435        O  0.78438182  0.54005692  0.20693558    -0.78600
O436        O  0.70658756  0.53160002  0.25289764    -0.83800
C437        C  0.68950191  0.50952721  0.17776839     0.97300
C438        C  0.69727347  0.54550287  0.24832797     1.03200
O439        O  0.69905186  0.53232183  0.17028380    -0.79400
C440        C  0.77047471  0.51674899  0.20402433     1.01500
Fe441      Fe  0.54476592  0.45536742  0.38481838     1.65800
Fe442      Fe  0.59645125  0.45594104  0.36171081     1.73200
Fe443      Fe  0.60121578  0.50593060  0.40009737     1.54400
O444        O  0.57914250  0.52047618  0.38527274    -0.83100
O445        O  0.62592419  0.46689597  0.39091328    -0.81500
O446        O  0.54185735  0.48681234  0.38587687    -0.85700
O447        O  0.54762043  0.45555619  0.42974242    -0.80500
O448        O  0.62307867  0.52054168  0.36220945    -0.82300
O449        O  0.57660483  0.42271004  0.38572988    -0.85000
C450        C  0.56238587  0.47220038  0.44768143     0.95700
C451        C  0.55562934  0.51019909  0.38394309     1.03200
O452        O  0.58112063  0.47272799  0.38221316    -1.14000
O453        O  0.56976960  0.44368719  0.32857944    -0.76400
O454        O  0.54168970  0.45503389  0.33974083    -0.79900
O455        O  0.58099243  0.49308871  0.43957573    -0.80600
C456        C  0.55240752  0.44801420  0.32135520     0.94600
O457        O  0.53960492  0.41980201  0.38409169    -0.78600
O458        O  0.61733908  0.48724823  0.33616660    -0.83800
C459        C  0.63559378  0.48336463  0.41089647     0.97300
C460        C  0.62677989  0.51066305  0.33948942     1.03200
O461        O  0.62694381  0.49748592  0.41759825    -0.79400
C462        C  0.55304220  0.40999621  0.38797285     1.01500
Fe463      Fe  0.44545520  0.55149074  0.37302423     1.65800
Fe464      Fe  0.44511045  0.60300527  0.39527491     1.73200
Fe465      Fe  0.49535979  0.60822885  0.35677088     1.54400
O466        O  0.51039087  0.58672272  0.37192976    -0.83100
O467        O  0.45519109  0.63186047  0.36492370    -0.81500
O468        O  0.47719120  0.54911204  0.37154907    -0.85700
O469        O  0.44548590  0.55421153  0.32798869    -0.80500
O470        O  0.50973487  0.63035095  0.39409341    -0.82300
O471        O  0.41173722  0.58229269  0.37233312    -0.85000
C472        C  0.46213202  0.56904283  0.30986172     0.95700
C473        C  0.50051392  0.56320806  0.37308348     1.03200
O474        O  0.46226410  0.58787830  0.37505789    -1.14000
O475        O  0.43380911  0.57680086  0.42930453    -0.76400
O476        O  0.44513511  0.54862016  0.41822667    -0.79900
O477        O  0.48286964  0.58776579  0.31774877    -0.80600
C478        C  0.43810682  0.55936955  0.43659578     0.94600
O479        O  0.40979905  0.54569000  0.37417318    -0.78600
O480        O  0.47639645  0.62487803  0.41992301    -0.83800
C481        C  0.47179233  0.64163073  0.34492002     0.97300
C482        C  0.49976821  0.63432228  0.41651079     1.03200
O483        O  0.48638883  0.63342710  0.33885482    -0.79400
C484        C  0.39948099  0.55867764  0.37052785     1.01500
Fe485      Fe  0.56180117  0.78680906  0.05002226     1.65800
Fe486      Fe  0.51058743  0.73416275  0.02888353     1.73200
Fe487      Fe  0.55660222  0.73083391  0.06709712     1.54400
O488        O  0.59292813  0.75304633  0.05146126    -0.83100
O489        O  0.49267159  0.70548435  0.05947969    -0.81500
O490        O  0.59651765  0.79034007  0.05124720    -0.85700
O491        O  0.55959261  0.78476302  0.09512225    -0.80500
O492        O  0.54923656  0.70837411  0.03011378    -0.82300
O493        O  0.49737516  0.75435378  0.05190128    -0.85000
C494        C  0.56190786  0.77034304  0.11339098     0.95700
C495        C  0.60618121  0.77659776  0.05001670     1.03200
O496        O  0.54299950  0.75030702  0.04865889    -1.14000
O497        O  0.52473109  0.76042276  0.49492964    -0.76400
O498        O  0.56387448  0.78894891  0.00487717    -0.79900
O499        O  0.56421949  0.75173170  0.10570232    -0.80600
C500        C  0.54621059  0.77792971  0.48702258     0.94600
O501        O  0.53122669  0.79159803  0.04891371    -0.78600
O502        O  0.52064044  0.71268150  0.00443466    -0.83800
C503        C  0.49988593  0.69605479  0.07938532     0.97300
C504        C  0.53502447  0.70378091  0.00788053     1.03200
O505        O  0.52277351  0.70493713  0.08552053    -0.79400
C506        C  0.50805817  0.77795680  0.05324966     1.01500
Fe507      Fe  0.75880781  0.88483133  0.04097879     1.65800
Fe508      Fe  0.80928396  0.88353564  0.06498579     1.73200
Fe509      Fe  0.76430884  0.83408915  0.02605070     1.54400
O510        O  0.72774461  0.81987521  0.04082790    -0.83100
O511        O  0.82805966  0.87326997  0.03535862    -0.81500
O512        O  0.72418979  0.85355030  0.03814504    -0.85700
O513        O  0.76400701  0.88634462  0.49618209    -0.80500
O514        O  0.77126379  0.81897306  0.06367753    -0.82300
O515        O  0.82297236  0.91703399  0.04169737    -0.85000
C516        C  0.76141025  0.86923975  0.47847070     0.95700
C517        C  0.71450256  0.83018315  0.04086205     1.03200
O518        O  0.77746509  0.86715326  0.04406339    -1.14000
O519        O  0.79397321  0.89477599  0.09823589    -0.76400
O520        O  0.75482865  0.88391764  0.08597580    -0.79900
O521        O  0.75793663  0.84794266  0.48683414    -0.80600
C522        C  0.77199457  0.88996921  0.10493779     0.94600
O523        O  0.78921929  0.92046099  0.04342421    -0.78600
O524        O  0.79902586  0.85194512  0.08984640    -0.83800
C525        C  0.82127878  0.85692168  0.01523578     0.97300
C526        C  0.78503979  0.82858668  0.08626924     1.03200
O527        O  0.79852546  0.84264688  0.00867172    -0.79400
C528        C  0.81243560  0.93000418  0.03954306     1.01500
Fe529      Fe  0.87649172  0.11745918  0.21644584     1.65800
Fe530      Fe  0.92926207  0.11929046  0.19362065     1.73200
Fe531      Fe  0.93254647  0.16823196  0.23299440     1.54400
O532        O  0.91036117  0.18245315  0.21789336    -0.83100
O533        O  0.95750243  0.12917049  0.22430224    -0.81500
O534        O  0.87308313  0.14872606  0.21677110    -0.85700
O535        O  0.87845118  0.11749785  0.26159329    -0.80500
O536        O  0.95498344  0.18393473  0.19596245    -0.82300
O537        O  0.90880215  0.08491967  0.21515225    -0.85000
C538        C  0.89291589  0.13422023  0.27964523     0.95700
C539        C  0.88692068  0.17214848  0.21534218     1.03200
O540        O  0.91301008  0.13517683  0.21441880    -1.14000
O541        O  0.90390535  0.10851631  0.15934723    -0.76400
O542        O  0.87389808  0.11704351  0.17139794    -0.79900
O543        O  0.91179513  0.15491148  0.27176414    -0.80600
C544        C  0.88570914  0.11165968  0.15265704     0.94600
O545        O  0.87181506  0.08217123  0.21589626    -0.78600
O546        O  0.95106852  0.15145744  0.16984995    -0.83800
C547        C  0.96692378  0.14559699  0.24437508     0.97300
C548        C  0.95976908  0.17470703  0.17351245     1.03200
O549        O  0.95830667  0.15983656  0.25072307    -0.79400
C550        C  0.88527797  0.07223986  0.21789420     1.01500
Fe551      Fe  0.77879153  0.21636080  0.20606619     1.65800
Fe552      Fe  0.77942587  0.26777599  0.23066117     1.73200
Fe553      Fe  0.82950413  0.27305690  0.19202775     1.54400
O554        O  0.84357481  0.25026002  0.20561787    -0.83100
O555        O  0.78924342  0.29673880  0.20081034    -0.81500
O556        O  0.80998908  0.21306014  0.20276444    -0.85700
O557        O  0.77866362  0.22066776  0.16119238    -0.80500
O558        O  0.84419272  0.29399983  0.23031172    -0.82300
O559        O  0.74590140  0.24772578  0.20788080    -0.85000
C560        C  0.79559703  0.23591880  0.14356442     0.95700
C561        C  0.83332222  0.22669061  0.20494011     1.03200
O562        O  0.79622231  0.25270727  0.20965924    -1.14000
O563        O  0.76853244  0.24109470  0.26388239    -0.76400
O564        O  0.77912197  0.21261197  0.25114169    -0.79900
O565        O  0.81658639  0.25393622  0.15215450    -0.80600
C566        C  0.77304769  0.22364610  0.27029047     0.94600
O567        O  0.74317506  0.21079768  0.20860391    -0.78600
O568        O  0.81086894  0.28940107  0.25532730    -0.83800
C569        C  0.80628986  0.30704183  0.18143310     0.97300
C570        C  0.83422358  0.29829612  0.25251085     1.03200
O571        O  0.82135419  0.29933293  0.17574593    -0.79400
C572        C  0.73325492  0.22419595  0.20550941     1.01500
Fe573      Fe  0.11273350  0.23782675  0.03840599     1.65800
Fe574      Fe  0.06007643  0.18605588  0.06029548     1.73200
Fe575      Fe  0.05652281  0.23253886  0.02248459     1.54400
O576        O  0.07895788  0.26893936  0.03761957    -0.83100
O577        O  0.03216232  0.16823391  0.02927120    -0.81500
O578        O  0.11606640  0.27234773  0.03993017    -0.85700
O579        O  0.11062803  0.23487617  0.49356342    -0.80500
O580        O  0.03467356  0.22554059  0.06006211    -0.82300
O581        O  0.08086564  0.17272219  0.03829524    -0.85000
C582        C  0.09628977  0.23758731  0.47569318     0.95700
C583        C  0.10230058  0.28193155  0.04124859     1.03200
O584        O  0.07620817  0.21875984  0.04034170    -1.14000
O585        O  0.08510209  0.20000491  0.09493362    -0.76400
O586        O  0.11543508  0.23867695  0.08352081    -0.79900
O587        O  0.07815168  0.24048493  0.48398836    -0.80600
C588        C  0.10345371  0.22115179  0.10198801     0.94600
O589        O  0.11755880  0.20738259  0.03704615    -0.78600
O590        O  0.03791017  0.19566429  0.08440013    -0.83800
C591        C  0.02216615  0.17556265  0.01025282     0.97300
C592        C  0.02958791  0.21063334  0.08180375     1.03200
O593        O  0.03027667  0.19855344  0.00493537    -0.79400
C594        C  0.10436076  0.18394834  0.03483102     1.01500
Fe595      Fe  0.21074164  0.43384451  0.05463581     1.65800
Fe596      Fe  0.20952661  0.48437395  0.02961358     1.73200
Fe597      Fe  0.16021032  0.43964079  0.06947915     1.54400
O598        O  0.14602002  0.40312652  0.05479364    -0.83100
O599        O  0.19933679  0.50337758  0.05909320    -0.81500
O600        O  0.17944594  0.39931441  0.05829451    -0.85700
O601        O  0.21131431  0.43809472  0.09943278    -0.80500
O602        O  0.14513585  0.44675919  0.03206180    -0.82300
O603        O  0.24304346  0.49819065  0.05228565    -0.85000
C604        C  0.19407917  0.43529495  0.11712997     0.95700
C605        C  0.15615226  0.38972555  0.05561508     1.03200
O606        O  0.19319829  0.45263621  0.05117433    -1.14000
O607        O  0.21997787  0.46946383  0.49687383    -0.76400
O608        O  0.21025082  0.42973357  0.00969975    -0.79900
O609        O  0.17303917  0.43218251  0.10867877    -0.80600
C610        C  0.21690169  0.44805796  0.49043387     0.94600
O611        O  0.24616294  0.46417220  0.05155995    -0.78600
O612        O  0.17799958  0.47400236  0.00503750    -0.83800
C613        C  0.18326781  0.49673672  0.07968463     0.97300
C614        C  0.15468559  0.46025537  0.00909952     1.03200
O615        O  0.16905155  0.47397564  0.08672747    -0.79400
C616        C  0.25586505  0.48750505  0.05438864     1.01500
Fe617      Fe  0.89595262  0.45322598  0.38671895     1.65800
Fe618      Fe  0.84575526  0.40116239  0.36235903     1.73200
Fe619      Fe  0.89066208  0.39703127  0.40194711     1.54400
O620        O  0.92696571  0.41941028  0.38632338    -0.83100
O621        O  0.82705519  0.37227760  0.39238430    -0.81500
O622        O  0.93051744  0.45662689  0.38962837    -0.85700
O623        O  0.89161886  0.44942226  0.43154734    -0.80500
O624        O  0.88332955  0.37437778  0.36509267    -0.82300
O625        O  0.83176924  0.42096058  0.38484725    -0.85000
C626        C  0.89449634  0.43502515  0.44925024     0.95700
C627        C  0.94017877  0.44301415  0.38640324     1.03200
O628        O  0.87744302  0.41682351  0.38355352    -1.14000
O629        O  0.86126481  0.42763461  0.32887475    -0.76400
O630        O  0.90000395  0.45681270  0.34174935    -0.79900
O631        O  0.89833268  0.41754106  0.44085307    -0.80600
C632        C  0.88305971  0.44547932  0.32260491     0.94600
O633        O  0.86558386  0.45826158  0.38419305    -0.78600
O634        O  0.85600128  0.37962231  0.33808575    -0.83800
C635        C  0.83374506  0.36292559  0.41296256     0.97300
C636        C  0.86964830  0.36998986  0.34240153     1.03200
O637        O  0.85647054  0.37159237  0.41989285    -0.79400
C638        C  0.84230563  0.44447883  0.38724266     1.01500
Fe639      Fe  0.09250305  0.55272143  0.37564215     1.65800
Fe640      Fe  0.14312378  0.55142040  0.39823238     1.73200
Fe641      Fe  0.09762140  0.50198491  0.36031124     1.54400
O642        O  0.06172047  0.48808790  0.37700435    -0.83100
O643        O  0.16112264  0.53998619  0.36874292    -0.81500
O644        O  0.05784319  0.52145272  0.37232710    -0.85700
O645        O  0.09656086  0.55372620  0.33087173    -0.80500
O646        O  0.10576935  0.48718480  0.39732017    -0.82300
O647        O  0.15641891  0.58431556  0.37379919    -0.85000
C648        C  0.09325843  0.53636640  0.31318689     0.95700
C649        C  0.04829965  0.49816973  0.37594306     1.03200
O650        O  0.11109021  0.53501033  0.37812881    -1.14000
O651        O  0.12866887  0.56384485  0.43130397    -0.76400
O652        O  0.08888543  0.55155902  0.42058986    -0.79900
O653        O  0.08931125  0.51491898  0.32164694    -0.80600
C654        C  0.10672515  0.55868493  0.43881711     0.94600
O655        O  0.12307610  0.58820052  0.37852667    -0.78600
O656        O  0.13274516  0.52025867  0.42397137    -0.83800
C657        C  0.15407211  0.52395777  0.34818203     0.97300
C658        C  0.11920622  0.49686499  0.42014715     1.03200
O659        O  0.13128052  0.51044714  0.34125328    -0.79400
C660        C  0.14605887  0.59751971  0.37306850     1.01500
Fe661      Fe  0.75868533  0.88356918  0.29176220     1.65800
Fe662      Fe  0.76434507  0.93956456  0.27391276     1.73200
Fe663      Fe  0.81017546  0.93599471  0.31231886     1.54400
O664        O  0.79613800  0.91051624  0.34693381    -0.83100
O665        O  0.79818131  0.96453679  0.25451839    -0.81500
O666        O  0.75659448  0.88190511  0.33694358    -0.85700
O667        O  0.78900698  0.87843967  0.29325701    -0.80500
O668        O  0.80053828  0.95791972  0.33641948    -0.82300
O669        O  0.75563502  0.91783548  0.23588601    -0.85000
C670        C  0.81224959  0.89177082  0.28921585     0.95700
C671        C  0.77458337  0.89317094  0.35484959     1.03200
O672        O  0.77775419  0.92001435  0.29263121    -1.14000
O673        O  0.72819545  0.91795027  0.29045376    -0.76400
O674        O  0.72429463  0.88051627  0.29040077    -0.79900
O675        O  0.82313881  0.91538824  0.28995117    -0.80600
C676        C  0.71483312  0.89439720  0.29209948     0.94600
O677        O  0.76075121  0.88513654  0.24664486    -0.78600
O678        O  0.77259734  0.96292171  0.31031170    -0.83800
C679        C  0.82105130  0.97313261  0.26063237     0.97300
C680        C  0.78664068  0.96732936  0.33268502     1.03200
O681        O  0.82806766  0.96407723  0.28118217    -0.79400
C682        C  0.75787516  0.89916318  0.22831379     1.01500
Fe683      Fe  0.56174994  0.78604618  0.30043362     1.65800
Fe684      Fe  0.55719227  0.83718441  0.31598064     1.73200
Fe685      Fe  0.51120711  0.78806699  0.27755100     1.54400
O686        O  0.52596008  0.77684590  0.24358103    -0.83100
O687        O  0.52327480  0.82962014  0.33299299    -0.81500
O688        O  0.56491846  0.78653330  0.25532563    -0.85700
O689        O  0.53110430  0.75078223  0.29843116    -0.80500
O690        O  0.52160819  0.82004526  0.25329176    -0.82300
O691        O  0.56350037  0.82347537  0.35520685    -0.85000
C692        C  0.50785361  0.74113713  0.30190660     0.95700
C693        C  0.54756605  0.78065742  0.23664266     1.03200
O694        O  0.54336739  0.80404955  0.29793785    -1.14000
O695        O  0.59364311  0.85093514  0.30154003    -0.76400
O696        O  0.59665381  0.81695957  0.30277529    -0.79900
O697        O  0.49728792  0.75411258  0.30006287    -0.80600
C698        C  0.60663062  0.84040671  0.30106446     0.94600
O699        O  0.55826231  0.78548538  0.34548176    -0.78600
O700        O  0.55105956  0.85268354  0.27844045    -0.83800
C701        C  0.50032888  0.81540756  0.32739777     0.97300
C702        C  0.53653264  0.84329841  0.25646669     1.03200
O703        O  0.49286885  0.79836064  0.30804004    -0.79400
C704        C  0.56043729  0.80231029  0.36340794     1.01500
Fe705      Fe  0.54344361  0.09985560  0.13504750     1.65800
Fe706      Fe  0.59927452  0.10502126  0.15136032     1.73200
Fe707      Fe  0.59585639  0.15074730  0.11209029     1.54400
O708        O  0.56982473  0.13614923  0.07809922    -0.83100
O709        O  0.62457321  0.13889127  0.16951649    -0.81500
O710        O  0.54070081  0.09701120  0.08988308    -0.85700
O711        O  0.53861221  0.13034469  0.13317949    -0.80500
O712        O  0.61725233  0.14047224  0.08778181    -0.82300
O713        O  0.57828972  0.09698217  0.19004923    -0.85000
C714        C  0.55221943  0.15361673  0.13657716     0.95700
C715        C  0.55196006  0.11456620  0.07117533     1.03200
O716        O  0.57982880  0.11856271  0.13277584    -1.14000
O717        O  0.57732020  0.06884238  0.13573609    -0.76400
O718        O  0.54012082  0.06531259  0.13707170    -0.79900
O719        O  0.57577288  0.16433127  0.13471505    -0.80600
C720        C  0.55380436  0.05567321  0.13478728     0.94600
O721        O  0.54597150  0.10272739  0.18011509    -0.78600
O722        O  0.62206496  0.11261602  0.11457611    -0.83800
C723        C  0.63364912  0.16178789  0.16287642     0.97300
C724        C  0.62648891  0.12644252  0.09188460     1.03200
O725        O  0.62463722  0.16899066  0.14240778    -0.79400
C726        C  0.56009995  0.09981011  0.19813144     1.01500
Fe727      Fe  0.44423036  0.90399386  0.12265888     1.65800
Fe728      Fe  0.49448044  0.89813415  0.10575180     1.73200
Fe729      Fe  0.44530260  0.85300368  0.14553099     1.54400
O730        O  0.43335030  0.86736484  0.17920067    -0.83100
O731        O  0.48562097  0.86411187  0.08753824    -0.81500
O732        O  0.44461180  0.90681952  0.16770306    -0.85700
O733        O  0.40879519  0.87349167  0.12443815    -0.80500
O734        O  0.47683401  0.86370329  0.17014886    -0.82300
O735        O  0.48133923  0.90611594  0.06708388    -0.85000
C736        C  0.39918686  0.85028337  0.12028812     0.95700
C737        C  0.43784062  0.88915449  0.18629115     1.03200
O738        O  0.46162927  0.88502426  0.12461926    -1.14000
O739        O  0.50903590  0.93438030  0.12143056    -0.76400
O740        O  0.47565109  0.93841981  0.12070734    -0.79900
O741        O  0.41196959  0.83949944  0.12224212    -0.80600
C742        C  0.49896600  0.94780175  0.12263092     0.94600
O743        O  0.44369159  0.90125452  0.07766926    -0.78600
O744        O  0.50964949  0.89049528  0.14263903    -0.83800
C745        C  0.47197710  0.84139448  0.09507503     0.97300
C746        C  0.50015283  0.87739149  0.16588482     1.03200
O747        O  0.45616141  0.83469522  0.11593951    -0.79400
C748        C  0.46035930  0.90360018  0.05935497     1.01500
Fe749      Fe  0.87877909  0.12052466  0.46674383     1.65800
Fe750      Fe  0.82840797  0.06457518  0.48291367     1.73200
Fe751      Fe  0.87776580  0.06859646  0.44443099     1.54400
O752        O  0.88965207  0.09531672  0.41090628    -0.83100
O753        O  0.83592857  0.03833479  0.00162733    -0.81500
O754        O  0.87709044  0.12260249  0.42179162    -0.85700
O755        O  0.91420351  0.12571751  0.46312258    -0.80500
O756        O  0.84656588  0.04752164  0.41932017    -0.82300
O757        O  0.84022518  0.08462223  0.02156237    -0.85000
C758        C  0.92376988  0.11227607  0.46849613     0.95700
C759        C  0.88399002  0.11177400  0.40338573     1.03200
O760        O  0.86132791  0.08417566  0.46472307    -1.14000
O761        O  0.81441374  0.08654789  0.46640439    -0.76400
O762        O  0.84766789  0.12382541  0.47072672    -0.79900
O763        O  0.91079866  0.08864320  0.46810598    -0.80600
C764        C  0.82445423  0.11006575  0.46751654     0.94600
O765        O  0.87859361  0.11672439  0.01156626    -0.78600
O766        O  0.81358609  0.04180894  0.44607181    -0.83800
C767        C  0.85056076  0.03016246  0.49501336     0.97300
C768        C  0.82323617  0.03795813  0.42324277     1.03200
O769        O  0.86670930  0.03923458  0.47440400    -0.79400
C770        C  0.86147030  0.10252357  0.02961332     1.01500
Fe771      Fe  0.78014388  0.21826669  0.45710691     1.65800
Fe772      Fe  0.72417252  0.16690582  0.44141348     1.73200
Fe773      Fe  0.72726638  0.21650071  0.47904304     1.54400
O774        O  0.75313142  0.22884840  0.01271912    -0.83100
O775        O  0.69754943  0.17398954  0.42420550    -0.81500
O776        O  0.78289754  0.21983584  0.50228806    -0.85700
O777        O  0.78427363  0.25336826  0.45631228    -0.80500
O778        O  0.70610125  0.18481500  0.00452288    -0.82300
O779        O  0.74411963  0.17994491  0.40205198    -0.85000
C780        C  0.77052809  0.26293472  0.45344229     0.95700
C781        C  0.77112988  0.22558462  0.02008462     1.03200
O782        O  0.74363571  0.20032715  0.45912893    -1.14000
O783        O  0.74690270  0.15325359  0.45563584    -0.76400
O784        O  0.78392445  0.18724337  0.45796261    -0.79900
O785        O  0.74700599  0.25001935  0.45584557    -0.80600
C786        C  0.77029108  0.16378058  0.45853090     0.94600
O787        O  0.77806488  0.21704712  0.41188813    -0.78600
O788        O  0.70270517  0.15196074  0.47935653    -0.83800
C789        C  0.68859340  0.18797461  0.43003161     0.97300
C790        C  0.69790381  0.16168687  0.50134761     1.03200
O791        O  0.69830341  0.20524274  0.44907063    -0.79400
C792        C  0.76329219  0.20034879  0.39395699     1.01500
C793        C  0.82090033  0.14815024  0.47267547    -0.14800
C794        C  0.80940102  0.12264078  0.46570561     0.07300
C795        C  0.78413811  0.11012019  0.45740230    -0.14800
C796        C  0.77092421  0.12313198  0.45565771    -0.14800
C797        C  0.78279874  0.14880181  0.46225199     0.07300
C798        C  0.80785694  0.16096249  0.47101133    -0.14800
H799        H  0.84020961  0.15845070  0.47948563     0.11300
H800        H  0.77475799  0.09048707  0.45190008     0.11300
H801        H  0.75167297  0.11328618  0.44860818     0.11300
H802        H  0.81763033  0.18063202  0.47642400     0.11300
C803        C  0.63678035  0.12256644  0.04001789    -0.14800
C804        C  0.64424144  0.12779618  0.06961492     0.07300
C805        C  0.66965479  0.14000839  0.07662135    -0.14800
C806        C  0.68748615  0.14912843  0.05404821    -0.14800
C807        C  0.67998251  0.14540432  0.02437775     0.07300
C808        C  0.65462022  0.13100332  0.01747798    -0.14800
H809        H  0.61721122  0.11361376  0.03430194     0.11300
H810        H  0.67566554  0.14468150  0.09935146     0.11300
H811        H  0.70698939  0.16064311  0.05964796     0.11300
H812        H  0.64907599  0.12930769  0.49428480     0.11300
C813        C  0.51516764  0.01516384  0.12635016    -0.14800
C814        C  0.54102595  0.02813361  0.13104795     0.07300
C815        C  0.55348733  0.01438469  0.13296788    -0.14800
C816        C  0.54011516  0.98815003  0.13037180    -0.14800
C817        C  0.51413598  0.97538344  0.12586436     0.07300
C818        C  0.50201043  0.98936795  0.12387832    -0.14800
H819        H  0.50481795  0.02493976  0.12459885     0.11300
H820        H  0.57338254  0.02382036  0.13673602     0.11300
H821        H  0.55001039  0.97791826  0.13199776     0.11300
H822        H  0.48211380  0.98041562  0.12024268     0.11300
C823        C  0.52060792  0.87079531  0.24124953    -0.14800
C824        C  0.53498059  0.85980024  0.23441842     0.07300
C825        C  0.54192916  0.85937400  0.20497252    -0.14800
C826        C  0.53298391  0.86824298  0.18232772    -0.14800
C827        C  0.51638934  0.87674964  0.18900002     0.07300
C828        C  0.51111702  0.87896970  0.21864394    -0.14800
H829        H  0.51462873  0.87071781  0.26381444     0.11300
H830        H  0.55258990  0.85046255  0.19936614     0.11300
H831        H  0.53690024  0.86601892  0.15952694     0.11300
H832        H  0.49811770  0.88520764  0.22412812     0.11300
C833        C  0.80031880  0.01054107  0.34832786    -0.14800
C834        C  0.78831221  0.98501744  0.35525346     0.07300
C835        C  0.78394054  0.97736170  0.38496298    -0.14800
C836        C  0.79295948  0.99505493  0.40754417    -0.14800
C837        C  0.80706264  0.02052617  0.40059063     0.07300
C838        C  0.81000014  0.02824235  0.37091452    -0.14800
H839        H  0.80439416  0.01674735  0.32551693     0.11300
H840        H  0.77521884  0.95772420  0.39063869     0.11300
H841        H  0.79104550  0.98879442  0.43029956     0.11300
H842        H  0.82124398  0.04783353  0.36521841     0.11300
C843        C  0.67378161  0.85568879  0.29911133    -0.14800
C844        C  0.68723301  0.88178552  0.29559722     0.07300
C845        C  0.67386260  0.89465026  0.29417535    -0.14800
C846        C  0.64759603  0.88148738  0.29588513    -0.14800
C847        C  0.63433390  0.85527330  0.29894670     0.07300
C848        C  0.64791130  0.84271848  0.30067465    -0.14800
H849        H  0.68322394  0.84499270  0.30042268     0.11300
H850        H  0.68362543  0.91472763  0.29139623     0.11300
H851        H  0.63771411  0.89175243  0.29464627     0.11300
H852        H  0.63856120  0.82263019  0.30327513     0.11300
C853        C  0.98086286  0.48198960  0.37867192    -0.14800
C854        C  0.96778027  0.45596392  0.38283035     0.07300
C855        C  0.98147730  0.44344293  0.38444870    -0.14800
C856        C  0.00772200  0.45688354  0.38234869    -0.14800
C857        C  0.02063192  0.48302440  0.37854730     0.07300
C858        C  0.00671428  0.49523019  0.37659809    -0.14800
H859        H  0.97112209  0.49238721  0.37709803     0.11300
H860        H  0.97198087  0.42341690  0.38769938     0.11300
H861        H  0.01786118  0.44688159  0.38378103     0.11300
H862        H  0.01577878  0.51525264  0.37346381     0.11300
C863        C  0.82181359  0.32994094  0.45164696    -0.14800
C864        C  0.81469954  0.33971520  0.42797532     0.07300
C865        C  0.79061383  0.32509565  0.41603195    -0.14800
C866        C  0.77498808  0.30042518  0.42580688    -0.14800
C867        C  0.78334393  0.29008215  0.44747666     0.07300
C868        C  0.80640115  0.30541601  0.46113062    -0.14800
H869        H  0.84002954  0.34069425  0.46166131     0.11300
H870        H  0.78452935  0.33206701  0.39778934     0.11300
H871        H  0.75727832  0.28894316  0.41495603     0.11300
H872        H  0.81310171  0.29796373  0.47821331     0.11300
C873        C  0.12498419  0.47444911  0.49517714    -0.14800
C874        C  0.13813911  0.46217222  0.48811006     0.07300
C875        C  0.14079024  0.45748309  0.45837416    -0.14800
C876        C  0.13176934  0.46638440  0.43588821    -0.14800
C877        C  0.12072260  0.48071739  0.44292298     0.07300
C878        C  0.11663674  0.48400317  0.47269038    -0.14800
H879        H  0.12231048  0.47696365  0.01634063     0.11300
H880        H  0.15137079  0.44852706  0.45255562     0.11300
H881        H  0.13560259  0.46417863  0.41304139     0.11300
H882        H  0.10856825  0.49541190  0.47848286     0.11300
C883        C  0.10209694  0.32287354  0.04533735    -0.14800
C884        C  0.11474404  0.30928896  0.04686981     0.07300
C885        C  0.14044496  0.32233718  0.05278441    -0.14800
C886        C  0.15335903  0.34813411  0.05596434    -0.14800
C887        C  0.14112969  0.36200782  0.05340851     0.07300
C888        C  0.11519904  0.34905257  0.04859819    -0.14800
H889        H  0.08227613  0.31338116  0.04103291     0.11300
H890        H  0.15089745  0.31267249  0.05452757     0.11300
H891        H  0.17319260  0.35721646  0.06008541     0.11300
H892        H  0.10516340  0.35913872  0.04686487     0.11300
C893        C  0.99047726  0.16430261  0.47224685    -0.14800
C894        C  0.99896326  0.15680732  0.99517941     0.07300
C895        C  0.98442081  0.13239451  0.00664263    -0.14800
C896        C  0.96046981  0.11713396  0.49776032    -0.14800
C897        C  0.95072122  0.12547238  0.47535949     0.07300
C898        C  0.96629384  0.14880752  0.46203260    -0.14800
H899        H  0.00144795  0.18263470  0.46232785     0.11300
H900        H  0.99124066  0.12607909  0.02481349     0.11300
H901        H  0.94877776  0.09931937  0.50854361     0.11300
H902        H  0.95931079  0.15560659  0.44452425     0.11300
C903        C  0.69099965  0.18702971  0.21070914    -0.14800
C904        C  0.70618440  0.21107294  0.19895509     0.07300
C905        C  0.69583239  0.22043778  0.17849431    -0.14800
C906        C  0.67137415  0.20508325  0.16810536    -0.14800
C907        C  0.65686996  0.18025006  0.17829238     0.07300
C908        C  0.66668318  0.17192359  0.20071698    -0.14800
H909        H  0.69837038  0.17942248  0.22678377     0.11300
H910        H  0.70715706  0.23890342  0.16905567     0.11300
H911        H  0.66442848  0.21213234  0.15085385     0.11300
H912        H  0.65611386  0.15308514  0.20939358     0.11300
C913        C  0.84473593  0.30823706  0.30552231    -0.14800
C914        C  0.84999054  0.31549759  0.27574512     0.07300
C915        C  0.86598566  0.34075234  0.26874051    -0.14800
C916        C  0.87450853  0.35875991  0.29106082    -0.14800
C917        C  0.86777041  0.35160209  0.32062702     0.07300
C918        C  0.85381622  0.32615655  0.32788077    -0.14800
H919        H  0.83216036  0.28883618  0.31131536     0.11300
H920        H  0.86981896  0.34675651  0.24588697     0.11300
H921        H  0.88490106  0.37839383  0.28505414     0.11300
H922        H  0.84799321  0.32034725  0.35048667     0.11300
C923        C  0.75920071  0.21946057  0.07275165    -0.14800
C924        C  0.77814255  0.22865505  0.05135023     0.07300
C925        C  0.80314176  0.24012808  0.06020456    -0.14800
C926        C  0.80908865  0.24266934  0.09031450    -0.14800
C927        C  0.79001154  0.23302741  0.11173151     0.07300
C928        C  0.76505711  0.22137943  0.10260927    -0.14800
H929        H  0.73980470  0.21042682  0.06633137     0.11300
H930        H  0.81799552  0.24743600  0.04388021     0.11300
H931        H  0.82845481  0.25191323  0.09683464     0.11300
H932        H  0.74996067  0.21410673  0.11863012     0.11300
C933        C  0.78052182  0.23612989  0.32259285    -0.14800
C934        C  0.77190131  0.21700392  0.30160376     0.07300
C935        C  0.76207541  0.19218087  0.31097808    -0.14800
C936        C  0.75967094  0.18652052  0.34122572    -0.14800
C937        C  0.76787132  0.20574726  0.36219143     0.07300
C938        C  0.77885446  0.23061327  0.35256241    -0.14800
H939        H  0.78836269  0.25544963  0.31575960     0.11300
H940        H  0.75543760  0.17720416  0.29501057     0.11300
H941        H  0.75117336  0.16719992  0.34824209     0.11300
H942        H  0.78515481  0.24576517  0.36824233     0.11300
C943        C  0.88056335  0.03443461  0.24499848    -0.14800
C944        C  0.87209894  0.04501789  0.22377019     0.07300
C945        C  0.84847579  0.03004235  0.21113933    -0.14800
C946        C  0.83268397  0.00578333  0.22136752    -0.14800
C947        C  0.84003088  0.99590359  0.24470947     0.07300
C948        C  0.86461115  0.01004995  0.25545908    -0.14800
H949        H  0.89866828  0.04560589  0.25511099     0.11300
H950        H  0.84163068  0.03766321  0.19442807     0.11300
H951        H  0.81408812  0.99539318  0.21224440     0.11300
H952        H  0.87092848  0.00299358  0.27338415     0.11300
C953        C  0.84885359  0.17481581  0.20481991    -0.14800
C954        C  0.87451088  0.18724670  0.21092112     0.07300
C955        C  0.88716069  0.21342507  0.21391885    -0.14800
C956        C  0.87413417  0.22663896  0.21170745    -0.14800
C957        C  0.84825478  0.21386456  0.20650329     0.07300
C958        C  0.83600552  0.18783541  0.20268187    -0.14800
H959        H  0.83841285  0.15475944  0.20202275     0.11300
H960        H  0.90693893  0.22359005  0.21854856     0.11300
H961        H  0.88418958  0.24669613  0.21450748     0.11300
H962        H  0.81620749  0.17724723  0.19822024     0.11300
C963        C  0.89401391  0.14750795  0.33201786    -0.14800
C964        C  0.88846028  0.12860632  0.31128449     0.07300
C965        C  0.88046704  0.10421601  0.32104373    -0.14800
C966        C  0.87910431  0.09895122  0.35108426    -0.14800
C967        C  0.88513046  0.11786012  0.37189376     0.07300
C968        C  0.89194006  0.14204429  0.36226108    -0.14800
H969        H  0.90013910  0.16641883  0.32481711     0.11300
H970        H  0.87625390  0.08938830  0.30539578     0.11300
H971        H  0.87337426  0.08006752  0.35808137     0.11300
H972        H  0.89641984  0.15681242  0.37807212     0.11300
C973        C  0.85392210  0.09853804  0.11270768    -0.14800
C974        C  0.87890705  0.10983962  0.12149824     0.07300
C975        C  0.89791604  0.11990887  0.10020924    -0.14800
C976        C  0.89208187  0.11840705  0.07040552    -0.14800
C977        C  0.86710284  0.10632265  0.06131260     0.07300
C978        C  0.84800408  0.09646052  0.08267457    -0.14800
H979        H  0.83904323  0.09075675  0.12900317     0.11300
H980        H  0.91731126  0.12901410  0.10666909     0.11300
H981        H  0.90719839  0.12602234  0.05442360     0.11300
H982        H  0.82863432  0.08703908  0.07616665     0.11300
C983        C  0.96936813  0.18903029  0.12143479    -0.14800
C984        C  0.97720699  0.19129723  0.15091354     0.07300
C985        C  0.00271691  0.20464355  0.15739545    -0.14800
C986        C  0.02024311  0.21334528  0.13446471    -0.14800
C987        C  0.01238455  0.20935551  0.10491907     0.07300
C988        C  0.98692005  0.19835153  0.09851342    -0.14800
H989        H  0.94972392  0.17839798  0.11610097     0.11300
H990        H  0.00904427  0.20608617  0.17999788     0.11300
H991        H  0.03983307  0.22146186  0.13972468     0.11300
H992        H  0.98054667  0.19470368  0.07582422     0.11300
C993        C  0.84559279  0.96717840  0.51010919    -0.14800
C994        C  0.82674744  0.95700052  0.03223307     0.07300
C995        C  0.81972361  0.97307334  0.04543409    -0.14800
C996        C  0.82898061  0.99736919  0.03484893    -0.14800
C997        C  0.84527520  0.00620059  0.01044454     0.07300
C998        C  0.85477858  0.99160874  0.49923253    -0.14800
H999        H  0.85158070  0.95526299  0.49980246     0.11300
H1000       H  0.80609056  0.96640917  0.06313482     0.11300
H1001       H  0.82215570  0.00874163  0.04475908     0.11300
H1002       H  0.86765971  0.99793159  0.48078075     0.11300
C1003       C  0.75034227  0.85629199  0.42581815    -0.14800
C1004       C  0.76366826  0.87494785  0.44678147     0.07300
C1005       C  0.78033401  0.89938550  0.43732156    -0.14800
C1006       C  0.78393625  0.90506760  0.40735239    -0.14800
C1007       C  0.77057454  0.88653955  0.38630592     0.07300
C1008       C  0.75349566  0.86215819  0.39567319    -0.14800
H1009       H  0.73742849  0.83731067  0.43277038     0.11300
H1010       H  0.79102075  0.91399732  0.45312067     0.11300
H1011       H  0.79703370  0.92408314  0.40061492     0.14900
H1012       H  0.74300320  0.84762705  0.37971064     0.11300
C1013       C  0.77793997  0.88336686  0.15740011    -0.14800
C1014       C  0.76650922  0.89091004  0.13626285     0.07300
C1015       C  0.75026530  0.89921665  0.14544511    -0.14800
C1016       C  0.74674057  0.90136088  0.17561484    -0.14800
C1017       C  0.75880661  0.89443929  0.19671432     0.07300
C1018       C  0.77391393  0.88484897  0.18733429    -0.14800
H1019       H  0.79019059  0.87645348  0.15073131     0.11300
H1020       H  0.74109697  0.90487065  0.12937612     0.11300
H1021       H  0.73492670  0.90872080  0.18246391     0.11300
H1022       H  0.78353042  0.87952244  0.20315954     0.11300
C1023       C  0.50105223  0.81372691  0.04576576    -0.14800
C1024       C  0.49402249  0.79090475  0.05998368     0.07300
C1025       C  0.47648851  0.78298452  0.08304890    -0.14800
C1026       C  0.46772104  0.79865084  0.09322757    -0.14800
C1027       C  0.47627201  0.82239257  0.08034853     0.07300
C1028       C  0.49221396  0.82920868  0.05569683    -0.14800
H1029       H  0.51440824  0.82016616  0.02775845     0.11300
H1030       H  0.47095370  0.76556724  0.09452261     0.11300
H1031       H  0.45554689  0.79285751  0.11235099     0.11300
H1032       H  0.49903895  0.84719828  0.04505144     0.11300
C1033       C  0.67309110  0.78914830  0.04081406    -0.14800
C1034       C  0.68683748  0.81530273  0.04403008     0.07300
C1035       C  0.67374348  0.82801052  0.04936304    -0.14800
C1036       C  0.64785481  0.81526950  0.05104569    -0.14800
C1037       C  0.63389145  0.78923209  0.04756815     0.07300
C1038       C  0.64680714  0.77620128  0.04260179    -0.14800
H1039       H  0.68258278  0.77879722  0.03655252     0.11300
H1040       H  0.68351722  0.84806388  0.05221863     0.11300
H1041       H  0.63879006  0.82604206  0.05527070     0.11300
H1042       H  0.63664429  0.75613782  0.03991988     0.11300
C1043       C  0.54547875  0.78465837  0.15404912    -0.14800
C1044       C  0.56030543  0.77463739  0.14500816     0.07300
C1045       C  0.57170335  0.76717790  0.16639338    -0.14800
C1046       C  0.56810575  0.76960259  0.19646744    -0.14800
C1047       C  0.55248948  0.77876295  0.20533082     0.07300
C1048       C  0.54138253  0.78644762  0.18391304    -0.14800
H1049       H  0.53627463  0.79032590  0.13796989     0.11300
H1050       H  0.58317647  0.75939657  0.15985524     0.11300
H1051       H  0.57692537  0.76368468  0.21277243     0.11300
H1052       H  0.52956764  0.79389472  0.19029202     0.11300
C1053       C  0.54009150  0.76564165  0.43446766    -0.14800
C1054       C  0.55025570  0.78463991  0.45563098     0.07300
C1055       C  0.56454140  0.80960852  0.44650815    -0.14800
C1056       C  0.56814034  0.81553742  0.41639699    -0.14800
C1057       C  0.55810971  0.79646835  0.39518576     0.07300
C1058       C  0.54423155  0.77147407  0.40451777    -0.14800
H1059       H  0.52919086  0.74623606  0.44114858     0.11300
H1060       H  0.57248774  0.82449204  0.46264847     0.11300
H1061       H  0.57876370  0.83493984  0.40969831     0.11300
H1062       H  0.53601085  0.75642188  0.38862282     0.11300
C1063       C  0.51255216  0.64373383  0.46893043    -0.14800
C1064       C  0.51562929  0.65168198  0.43935464     0.07300
C1065       C  0.52951302  0.67722165  0.43267288    -0.14800
C1066       C  0.53823788  0.69473274  0.45544627    -0.14800
C1067       C  0.53376491  0.68680964  0.48504692     0.07300
C1068       C  0.52191544  0.66124701  0.49170862    -0.14800
H1069       H  0.50142971  0.62405890  0.47440383     0.11300
H1070       H  0.53150851  0.68363904  0.40997667     0.11300
H1071       H  0.54685260  0.71440207  0.45000579     0.11300
H1072       H  0.51776174  0.65485939  0.51442353     0.11300
C1073       C  0.49337907  0.67449191  0.30613165    -0.14800
C1074       C  0.47595111  0.66469437  0.32936178     0.07300
C1075       C  0.46580227  0.67910809  0.34012429    -0.14800
C1076       C  0.47457026  0.70357521  0.32959467    -0.14800
C1077       C  0.49370117  0.71396496  0.30832268     0.07300
C1078       C  0.50218268  0.69877567  0.29589500    -0.14800
H1079       H  0.50142920  0.66395033  0.29699826     0.11300
H1080       H  0.45233064  0.67214019  0.35801630     0.11300
H1081       H  0.46775378  0.71490408  0.33958006     0.11300
H1082       H  0.51671849  0.70619329  0.27918511     0.11300
C1083       C  0.54205597  0.56422806  0.37838406    -0.14800
C1084       C  0.51585926  0.55091098  0.37585470     0.07300
C1085       C  0.50361668  0.52471109  0.37528470    -0.14800
C1086       C  0.51680034  0.51209639  0.37739151    -0.14800
C1087       C  0.54286655  0.52505491  0.38031631     0.07300
C1088       C  0.55547726  0.55137570  0.38064627    -0.14800
H1089       H  0.55208963  0.58442714  0.37871880     0.11300
H1090       H  0.48356056  0.51363742  0.37314515     0.11300
H1091       H  0.50625702  0.49189682  0.37688916     0.11300
H1092       H  0.57554217  0.56194427  0.38289367     0.11300
C1093       C  0.65400616  0.53140934  0.26379177    -0.14800
C1094       C  0.67948106  0.54437544  0.27051795     0.07300
C1095       C  0.68702967  0.55032534  0.30003001    -0.14800
C1096       C  0.66928509  0.54182890  0.32275372    -0.14800
C1097       C  0.64392924  0.52662985  0.31619138     0.07300
C1098       C  0.63631020  0.52224135  0.28654737    -0.14800
H1099       H  0.64790022  0.52616894  0.24117670     0.11300
H1100       H  0.70663589  0.55986493  0.30559075     0.11300
H1101       H  0.67551904  0.54493765  0.34552706     0.11300
H1102       H  0.61684535  0.51018693  0.28113753     0.11300
C1103       C  0.79068732  0.80626674  0.16136760    -0.14800
C1104       C  0.80474584  0.79489645  0.15448943     0.07300
C1105       C  0.80787658  0.79049951  0.12479335    -0.14800
C1106       C  0.79850942  0.79891043  0.10217548    -0.14800
C1107       C  0.78655195  0.81241892  0.10901809     0.07300
C1108       C  0.78195619  0.81532811  0.13872833    -0.14800
H1109       H  0.78860921  0.81033424  0.18412871     0.11300
H1110       H  0.81906310  0.78217554  0.11912325     0.11300
H1111       H  0.80278118  0.79704945  0.07938661     0.11300
H1112       H  0.77322753  0.82617833  0.14438791     0.11300
C1113       C  0.78267219  0.68215351  0.21448412    -0.14800
C1114       C  0.80888480  0.69555974  0.21589858     0.07300
C1115       C  0.82178535  0.68232999  0.21374879    -0.14800
C1116       C  0.80906997  0.65656684  0.21058242    -0.14800
C1117       C  0.78291530  0.64294260  0.20937642     0.07300
C1118       C  0.76976627  0.65600449  0.21125425    -0.14800
H1119       H  0.77219793  0.69180128  0.21607292     0.11300
H1120       H  0.84193240  0.69185579  0.21458114     0.11300
H1121       H  0.81996632  0.64735059  0.20907383     0.11300
H1122       H  0.74961655  0.64606422  0.21025634     0.11300
C1123       C  0.85519403  0.87208500  0.25374160    -0.14800
C1124       C  0.84438361  0.84723615  0.26399346     0.07300
C1125       C  0.82603218  0.83914222  0.28618124    -0.14800
C1126       C  0.81694269  0.85449439  0.29564810    -0.14800
C1127       C  0.82609791  0.87845760  0.28348553     0.07300
C1128       C  0.84617365  0.88764591  0.26352690    -0.14800
H1129       H  0.86947577  0.87898263  0.23674835     0.11300
H1130       H  0.81747885  0.82032383  0.29493430     0.11300
H1131       H  0.80176354  0.84709233  0.31152641     0.11300
H1132       H  0.85363304  0.90608664  0.25394965     0.11300
C1133       C  0.88019303  0.85286474  0.50221930    -0.14800
C1134       C  0.87174501  0.83462328  0.48004080     0.07300
C1135       C  0.84830546  0.82712619  0.96638327    -0.14800
C1136       C  0.83300866  0.83617435  0.97623186    -0.14800
C1137       C  0.84020546  0.85271905  0.00018730     0.07300
C1138       C  0.86475872  0.86191339  0.51243423    -0.14800
H1139       H  0.89783202  0.85874550  0.51301831     0.11300
H1140       H  0.84156056  0.81326189  0.94901041     0.11300
H1141       H  0.81485396  0.82898879  0.96620152     0.11300
H1142       H  0.87092014  0.87461961  0.53098556     0.11300
C1143       C  0.89994728  0.76002594  0.08704935    -0.14800
C1144       C  0.88970140  0.76886389  0.06572936     0.07300
C1145       C  0.87698133  0.78111304  0.07502426    -0.14800
C1146       C  0.87521640  0.78521561  0.10487702    -0.14800
C1147       C  0.88558778  0.77662068  0.12611088     0.07300
C1148       C  0.89754447  0.76355987  0.11717220    -0.14800
H1149       H  0.90988860  0.75060457  0.08043612     0.11300
H1150       H  0.86906083  0.78834123  0.05912409     0.11300
H1151       H  0.86571067  0.79509588  0.11142504     0.11300
H1152       H  0.90561912  0.75677226  0.13341146     0.11300
C1153       C  0.89093934  0.78460480  0.32493769    -0.14800
C1154       C  0.86625905  0.76925677  0.31565449     0.07300
C1155       C  0.84726390  0.75730084  0.33689504    -0.14800
C1156       C  0.85299479  0.76076391  0.36704853    -0.14800
C1157       C  0.87761342  0.77682144  0.37609452     0.07300
C1158       C  0.89650824  0.78854262  0.35483222    -0.14800
H1159       H  0.90590686  0.79423034  0.30903782     0.11300
H1160       H  0.82810079  0.74539915  0.33017993     0.11300
H1161       H  0.83820236  0.75147789  0.38322919     0.11300
H1162       H  0.91569447  0.80072256  0.36137201     0.11300
C1163       C  0.69248536  0.51287215  0.45993047    -0.14800
C1164       C  0.70789031  0.50491823  0.44685968     0.07300
C1165       C  0.69797019  0.48681682  0.42453077    -0.14800
C1166       C  0.67367066  0.47833758  0.41397973    -0.14800
C1167       C  0.65890380  0.48773875  0.42575612     0.07300
C1168       C  0.66833960  0.50433990  0.44964958    -0.14800
H1169       H  0.69958165  0.52667812  0.47732927     0.11300
H1170       H  0.70952428  0.48054188  0.41390479     0.11300
H1171       H  0.66705516  0.46561921  0.39547784     0.11300
H1172       H  0.65753148  0.51184037  0.45948931     0.11300
C1173       C  0.87620263  0.65642351  0.46263227    -0.14800
C1174       C  0.85015998  0.64310903  0.45856032     0.07300
C1175       C  0.83747321  0.65662183  0.45775384    -0.14800
C1176       C  0.85005155  0.68235801  0.46108113    -0.14800
C1177       C  0.87593973  0.69587376  0.46542027     0.07300
C1178       C  0.88901910  0.68265329  0.46601149    -0.14800
H1179       H  0.88657116  0.64663126  0.46331557     0.11300
H1180       H  0.81750255  0.64732698  0.45459815     0.11300
H1181       H  0.83919013  0.69164870  0.46032120     0.11300
H1182       H  0.90897508  0.69248724  0.46936225     0.11300
C1183       C  0.80255564  0.46546934  0.42790880    -0.14800
C1184       C  0.81075895  0.48899316  0.41457983     0.07300
C1185       C  0.82592178  0.49531086  0.38925781    -0.14800
C1186       C  0.83451495  0.47966565  0.37913556    -0.14800
C1187       C  0.82797410  0.45715363  0.39381703     0.07300
C1188       C  0.81107540  0.44963630  0.41754366    -0.14800
H1189       H  0.79096885  0.46004999  0.44752906     0.11300
H1190       H  0.83240892  0.51310238  0.37822760     0.11300
H1191       H  0.84742441  0.48580379  0.36067941     0.11300
H1192       H  0.80597387  0.43248257  0.42942062     0.11300
C1193       C  0.76593827  0.55516521  0.35167328    -0.14800
C1194       C  0.79097206  0.56855015  0.36055674     0.07300
C1195       C  0.80989577  0.57855354  0.33897438    -0.14800
C1196       C  0.80370628  0.57504979  0.30893410    -0.14800
C1197       C  0.77866907  0.56091924  0.30033385     0.07300
C1198       C  0.75987402  0.55116812  0.32188958    -0.14800
H1199       H  0.75096691  0.54709763  0.36778853     0.11300
H1200       H  0.82923798  0.58889818  0.34529137     0.11300
H1201       H  0.81846612  0.58280963  0.29245378     0.11300
H1202       H  0.74044041  0.54053556  0.31566526     0.11300
C1203       C  0.75922719  0.58029763  0.08918439    -0.14800
C1204       C  0.76935910  0.57128341  0.11042319     0.07300
C1205       C  0.78274420  0.55973569  0.10106246    -0.14800
C1206       C  0.78472154  0.55595661  0.07116288    -0.14800
C1207       C  0.77390444  0.56417470  0.05007220     0.07300
C1208       C  0.76179790  0.57705355  0.05906581    -0.14800
H1209       H  0.74894594  0.58938988  0.09586909     0.11300
H1210       H  0.79076829  0.55260513  0.11687426     0.11300
H1211       H  0.79449811  0.54632994  0.06445978     0.11300
H1212       H  0.75351816  0.58364943  0.04291524     0.11300
C1213       C  0.15486548  0.52431766  0.13006531    -0.14800
C1214       C  0.16193173  0.54727361  0.11623769     0.07300
C1215       C  0.17954287  0.55545530  0.09320940    -0.14800
C1216       C  0.18818144  0.53979699  0.08253188    -0.14800
C1217       C  0.17939452  0.51583587  0.09488960     0.07300
C1218       C  0.16357732  0.50887558  0.11967275    -0.14800
H1219       H  0.14147265  0.51769904  0.14804558     0.11300
H1220       H  0.18514778  0.57302342  0.08208113     0.11300
H1221       H  0.20035393  0.54574205  0.06339998     0.11300
H1222       H  0.15666597  0.49075875  0.13001758     0.11300
C1223       C  0.08298937  0.57033467  0.00985778    -0.14800
C1224       C  0.09581615  0.56437506  0.03092362     0.07300
C1225       C  0.11232719  0.55648357  0.02156102    -0.14800
C1226       C  0.11396422  0.55344786  0.49119913    -0.14800
C1227       C  0.10211777  0.56056036  0.47015612     0.07300
C1228       C  0.08609810  0.56911862  0.47941075    -0.14800
H1229       H  0.07024534  0.57656717  0.01673378     0.11300
H1230       H  0.12267356  0.55213487  0.03745128     0.11300
H1231       H  0.12617040  0.54649974  0.48443633     0.11300
H1232       H  0.07676110  0.57460303  0.46337938     0.11300
C1233       C  0.11564955  0.57212127  0.24202102    -0.14800
C1234       C  0.10393864  0.55317217  0.22096472     0.07300
C1235       C  0.08749198  0.52861311  0.23027616    -0.14800
C1236       C  0.08354627  0.52295342  0.26043963    -0.14800
C1237       C  0.09546563  0.54196586  0.28144158     0.07300
C1238       C  0.11126369  0.56661359  0.27195581    -0.14800
H1239       H  0.12810417  0.59127352  0.23531529     0.11300
H1240       H  0.07816787  0.51377474  0.21427659     0.11300
H1241       H  0.07131327  0.50382994  0.26735114     0.11300
H1242       H  0.12087919  0.58157726  0.28773466     0.11300
C1243       C  0.80868244  0.36876348  0.16687199    -0.14800
C1244       C  0.82754104  0.37915605  0.14529732     0.07300
C1245       C  0.83582463  0.36400286  0.13231493    -0.14800
C1246       C  0.82723129  0.33975362  0.14247007    -0.14800
C1247       C  0.81021544  0.33002389  0.16608490     0.07300
C1248       C  0.80010694  0.34432974  0.17727745    -0.14800
H1249       H  0.80199030  0.38007001  0.17718437     0.11300
H1250       H  0.85007743  0.37143817  0.11527480     0.11300
H1251       H  0.83511367  0.32918788  0.13296365     0.11300
H1252       H  0.78688605  0.33733218  0.19542832     0.11300
C1253       C  0.87049344  0.51747389  0.03810545    -0.14800
C1254       C  0.86857715  0.52318604  0.06766094     0.07300
C1255       C  0.86017828  0.53994129  0.07393348    -0.14800
C1256       C  0.85143651  0.54886250  0.05109558    -0.14800
C1257       C  0.85180587  0.54175106  0.02173313     0.07300
C1258       C  0.86245482  0.52697272  0.01525812    -0.14800
H1259       H  0.87652182  0.50425559  0.03291119     0.11300
H1260       H  0.85807615  0.54413466  0.09663927     0.11300
H1261       H  0.84278873  0.55981737  0.05651990     0.11300
H1262       H  0.86270473  0.52173426  0.49340295     0.11300
C1263       C  0.90325159  0.48277541  0.25176089    -0.14800
C1264       C  0.89534676  0.46349737  0.23087094     0.07300
C1265       C  0.88505896  0.43871017  0.24071145    -0.14800
C1266       C  0.88151904  0.43315814  0.27071391    -0.14800
C1267       C  0.88868053  0.45227284  0.29145214     0.07300
C1268       C  0.90022312  0.47719606  0.28199725    -0.14800
H1269       H  0.91133119  0.50205384  0.24471694     0.11300
H1270       H  0.87876665  0.42345312  0.22520438     0.11300
H1271       H  0.87286041  0.41381122  0.27778026     0.11300
H1272       H  0.90591731  0.49213102  0.29786391     0.11300
C1273       C  0.90146846  0.43517361  0.03186890    -0.14800
C1274       C  0.88350260  0.44112557  0.04134569     0.07300
C1275       C  0.86904262  0.44490591  0.02036226    -0.14800
C1276       C  0.87262308  0.44305196  0.99040777    -0.14800
C1277       C  0.89185633  0.43797619  0.48092184     0.07300
C1278       C  0.90547376  0.43311922  0.50205611    -0.14800
H1279       H  0.91278628  0.43215416  0.04776617     0.11300
H1280       H  0.85520378  0.44969394  0.02708505     0.11300
H1281       H  0.86329795  0.44794328  0.47419678     0.11300
H1282       H  0.91899697  0.42793225  0.49526648     0.11300
C1283       C  0.98180934  0.50848376  0.13763096    -0.14800
C1284       C  0.96804796  0.52076638  0.13406587     0.07300
C1285       C  0.98122944  0.54678949  0.12932928    -0.14800
C1286       C  0.00750334  0.55996268  0.12747842    -0.14800
C1287       C  0.02105979  0.54735820  0.13045851     0.07300
C1288       C  0.00774324  0.52149882  0.13591172    -0.14800
H1289       H  0.97253915  0.48857427  0.14176643     0.11300
H1290       H  0.97126399  0.55688231  0.12672230     0.11300
H1291       H  0.01714169  0.57986935  0.12326393     0.11300
H1292       H  0.01735170  0.51105764  0.13860216     0.11300
C1293       C  0.82166127  0.50103667  0.20196931    -0.14800
C1294       C  0.81466051  0.48458403  0.17797770     0.07300
C1295       C  0.79068984  0.47541153  0.16579597    -0.14800
C1296       C  0.77501242  0.48421393  0.17581275    -0.14800
C1297       C  0.78314544  0.50233730  0.19805722     0.07300
C1298       C  0.80613331  0.50983303  0.21180648    -0.14800
H1299       H  0.83980641  0.50827784  0.21209908     0.11300
H1300       H  0.78473107  0.46276341  0.14722059     0.11300
H1301       H  0.75745578  0.47829103  0.16473410     0.11300
H1302       H  0.81271746  0.52363267  0.22921988     0.11300
C1303       C  0.02015253  0.81862476  0.38754631    -0.14800
C1304       C  0.01225301  0.81372098  0.35801165     0.07300
C1305       C  0.98682335  0.79843119  0.35188874    -0.14800
C1306       C  0.96931398  0.79018818  0.37490013    -0.14800
C1307       C  0.97715283  0.79650932  0.40428989     0.07300
C1308       C  0.00269897  0.80979046  0.41057921    -0.14800
H1309       H  0.03963170  0.83068130  0.39262547     0.11300
H1310       H  0.98035152  0.79493615  0.32922142     0.11300
H1311       H  0.94964993  0.78039309  0.36964925     0.11300
H1312       H  0.00905441  0.81534859  0.43307273     0.11300
C1313       C  0.98408366  0.86259602  0.25920850    -0.14800
C1314       C  0.99847821  0.85283132  0.24730708     0.07300
C1315       C  0.98880422  0.83613036  0.22357879    -0.14800
C1316       C  0.96453188  0.82750460  0.21392159    -0.14800
C1317       C  0.94935768  0.83547576  0.22755370     0.07300
C1318       C  0.95964338  0.85398138  0.24933276    -0.14800
H1319       H  0.99101065  0.87551570  0.27750954     0.11300
H1320       H  0.99942351  0.82846335  0.21362778     0.11300
H1321       H  0.95709151  0.81344293  0.19681459     0.11300
H1322       H  0.94824920  0.86032337  0.26022667     0.11300
C1323       C  0.15142275  0.81426391  0.30479549    -0.14800
C1324       C  0.13963587  0.78831965  0.30072300     0.07300
C1325       C  0.11386052  0.77516682  0.29476506    -0.14800
C1326       C  0.10048891  0.78799916  0.29207245    -0.14800
C1327       C  0.11274416  0.81412978  0.29529850     0.07300
C1328       C  0.13825880  0.82688426  0.30217038    -0.14800
H1329       H  0.17109606  0.82509773  0.30986784     0.11300
H1330       H  0.10417978  0.75513823  0.29174198     0.11300
H1331       H  0.08083223  0.77763063  0.28682826     0.11300
H1332       H  0.14835117  0.84691961  0.30526386     0.11300
C1333       C  0.18612560  0.65815159  0.33159375    -0.14800
C1334       C  0.17795647  0.67359044  0.34438709     0.07300
C1335       C  0.16250832  0.66482522  0.36950021    -0.14800
C1336       C  0.15365687  0.64056607  0.37993973    -0.14800
C1337       C  0.16021893  0.62448512  0.36580020     0.07300
C1338       C  0.17736603  0.63378137  0.34230262    -0.14800
H1339       H  0.19794914  0.66426803  0.31216638     0.11300
H1340       H  0.15601825  0.67620658  0.38012799     0.11300
H1341       H  0.14063103  0.63391799  0.39827801     0.11300
H1342       H  0.18256024  0.62167822  0.33090386     0.11300
C1343       C  0.13911050  0.69369124  0.20696255    -0.14800
C1344       C  0.13670181  0.68620845  0.23667569     0.07300
C1345       C  0.12377460  0.66071769  0.24383555    -0.14800
C1346       C  0.11575728  0.64292017  0.22138231    -0.14800
C1347       C  0.11991378  0.65049978  0.19165214     0.07300
C1348       C  0.13042681  0.67586702  0.18452737    -0.14800
H1349       H  0.14943522  0.71330589  0.20111274     0.11300
H1350       H  0.12227309  0.65467301  0.26663230     0.11300
H1351       H  0.10803034  0.62341662  0.22718228     0.11300
H1352       H  0.13420327  0.68202089  0.16168700     0.11300
C1353       C  0.21433711  0.70260388  0.08092032    -0.14800
C1354       C  0.20533270  0.71289563  0.05995651     0.07300
C1355       C  0.18152052  0.69771705  0.04794413    -0.14800
C1356       C  0.16607290  0.67358176  0.05854350    -0.14800
C1357       C  0.17394465  0.66397108  0.08161293     0.07300
C1358       C  0.19869845  0.67826885  0.09176230    -0.14800
H1359       H  0.23265288  0.71394164  0.09049704     0.11300
H1360       H  0.17426968  0.70506745  0.03140329     0.11300
H1361       H  0.14732348  0.66302410  0.04983779     0.11300
H1362       H  0.20539027  0.67136154  0.10943021     0.11300
C1363       C  0.35662222  0.84397702  0.12631388    -0.14800
C1364       C  0.37227704  0.83640794  0.11308261     0.07300
C1365       C  0.36268708  0.81861846  0.09041101    -0.14800
C1366       C  0.33840257  0.81000452  0.07977950    -0.14800
C1367       C  0.32335214  0.81898714  0.09179569     0.07300
C1368       C  0.33250475  0.83534539  0.11590902    -0.14800
H1369       H  0.36350052  0.85756806  0.14395102     0.11300
H1370       H  0.37446681  0.81269692  0.07962960     0.11300
H1371       H  0.33200427  0.79750993  0.06106267     0.11300
H1372       H  0.32146113  0.84252336  0.12588553     0.11300
C1373       C  0.20839917  0.77152436  0.15568336    -0.14800
C1374       C  0.22132770  0.79644599  0.14594694     0.07300
C1375       C  0.23114633  0.81577945  0.16686468    -0.14800
C1376       C  0.22835858  0.81016655  0.19709198    -0.14800
C1377       C  0.21638822  0.78521289  0.20652660     0.07300
C1378       C  0.20621738  0.76597573  0.18569373    -0.14800
H1379       H  0.20074990  0.75623578  0.14007909     0.11300
H1380       H  0.24115796  0.83513734  0.15985025     0.11300
H1381       H  0.23628164  0.82519808  0.21301904     0.11300
H1382       H  0.19671596  0.74660407  0.19268941     0.11300
C1383       C  0.22977633  0.78395270  0.43529800    -0.14800
C1384       C  0.21081089  0.77664480  0.45647697     0.07300
C1385       C  0.18632172  0.76857791  0.44740285    -0.14800
C1386       C  0.18072678  0.76687196  0.41730441    -0.14800
C1387       C  0.19973023  0.77394591  0.39614157     0.07300
C1388       C  0.22433965  0.78288800  0.40539424    -0.14800
H1389       H  0.24888610  0.79063093  0.44190639     0.11300
H1390       H  0.17150176  0.76303834  0.46352710     0.11300
H1391       H  0.16162024  0.75991929  0.41055619     0.11300
H1392       H  0.23927074  0.78823951  0.38947886     0.11300
C1393       C  0.02272685  0.85835492  0.04580155    -0.14800
C1394       C  0.03829492  0.88121114  0.03153999     0.07300
C1395       C  0.02830464  0.88935341  0.00920659    -0.14800
C1396       C  0.00358190  0.87343553  0.50057297    -0.14800
C1397       C  0.98900528  0.84965183  0.01187641     0.07300
C1398       C  0.99836356  0.84283138  0.03622478    -0.14800
H1399       H  0.02993329  0.85181510  0.06334925     0.11300
H1400       H  0.03998335  0.90688639  0.99784835     0.11300
H1401       H  0.99680528  0.87931778  0.48194316     0.11300
H1402       H  0.98744380  0.82472588  0.04670128     0.11300
C1403       C  0.20490459  0.89293663  0.04200307    -0.14800
C1404       C  0.17863693  0.88006630  0.04248259     0.07300
C1405       C  0.16593371  0.85396333  0.04588802    -0.14800
C1406       C  0.17887046  0.84103608  0.04843039    -0.14800
C1407       C  0.20507861  0.85365119  0.04774474     0.07300
C1408       C  0.21801585  0.87984251  0.04464670    -0.14800
H1409       H  0.21528311  0.91302806  0.03936452     0.11300
H1410       H  0.14577357  0.84328082  0.04647265     0.11300
H1411       H  0.16811405  0.82094704  0.05098345     0.11300
H1412       H  0.23818377  0.89016286  0.04414744     0.11300
C1413       C  0.09647307  0.88555280  0.43381558    -0.14800
C1414       C  0.12123142  0.89627525  0.44334383     0.07300
C1415       C  0.14055088  0.90469471  0.42231313    -0.14800
C1416       C  0.13506771  0.90253174  0.39212616    -0.14800
C1417       C  0.11035215  0.89269203  0.38285687     0.07300
C1418       C  0.09111629  0.88408426  0.40385695    -0.14800
H1419       H  0.08124273  0.87912717  0.44957472     0.11300
H1420       H  0.15976302  0.91305559  0.42921315     0.11300
H1421       H  0.15011047  0.90919615  0.37609237     0.11300
H1422       H  0.07193523  0.87624302  0.39705999     0.11300
C1423       C  0.09471364  0.86049595  0.14242336    -0.14800
C1424       C  0.10059420  0.88465448  0.13356751     0.07300
C1425       C  0.10447398  0.90247253  0.15513307    -0.14800
C1426       C  0.10262807  0.89638988  0.18493879    -0.14800
C1427       C  0.09637485  0.87223732  0.19389796     0.07300
C1428       C  0.09221255  0.85418022  0.17250990    -0.14800
H1429       H  0.09171705  0.84646930  0.12612303     0.11300
H1430       H  0.10926713  0.92128710  0.14898443     0.11300
H1431       H  0.10557700  0.91052328  0.20109358     0.11300
H1432       H  0.08730220  0.83542849  0.17907518     0.11300
C1433       C  0.50056371  0.16869698  0.13916731    -0.14800
C1434       C  0.50754776  0.18519483  0.16313543     0.07300
C1435       C  0.53151299  0.19440390  0.17531714    -0.14800
C1436       C  0.54727356  0.18573127  0.16520015    -0.14800
C1437       C  0.53922284  0.16766434  0.14288686     0.07300
C1438       C  0.51614861  0.15998785  0.12927926    -0.14800
H1439       H  0.48240019  0.16136587  0.12906676     0.11300
H1440       H  0.53743747  0.20703391  0.19391063     0.11300
H1441       H  0.56487941  0.19175819  0.17620712     0.11300
H1442       H  0.50958987  0.14619327  0.11186035     0.11300
C1443       C  0.20262551  0.02765274  0.11864786    -0.14800
C1444       C  0.20166791  0.02009711  0.14812991     0.07300
C1445       C  0.19419624  0.99508832  0.15443659    -0.14800
C1446       C  0.18518121  0.97738242  0.13175841    -0.14800
C1447       C  0.18435542  0.98475576  0.10261038     0.07300
C1448       C  0.19425308  0.01011763  0.09597014    -0.14800
H1449       H  0.20808317  0.04685163  0.11344368     0.11300
H1450       H  0.19293034  0.98887370  0.17710722     0.11300
H1451       H  0.17709650  0.95776305  0.13725629     0.11300
H1452       H  0.19319471  0.01600351  0.07370859     0.11300
C1453       C  0.34084749  0.12142220  0.20738915    -0.14800
C1454       C  0.35441452  0.14764740  0.20996610     0.07300
C1455       C  0.34115585  0.16021017  0.21510558    -0.14800
C1456       C  0.31528229  0.14730874  0.21682083    -0.14800
C1457       C  0.30147552  0.12123553  0.21362185     0.07300
C1458       C  0.31456050  0.10829989  0.20926366    -0.14800
H1459       H  0.35046946  0.11115268  0.20343845     0.11300
H1460       H  0.35076746  0.18030130  0.21755166     0.11300
H1461       H  0.30609716  0.15801926  0.22069503     0.11300
H1462       H  0.30452673  0.08819918  0.20696654     0.11300
C1463       C  0.12353180  0.99136788  0.24792299    -0.14800
C1464       C  0.14797492  0.00571984  0.25892712     0.07300
C1465       C  0.15557387  0.99584747  0.28201264    -0.14800
C1466       C  0.14013675  0.97146338  0.29186088    -0.14800
C1467       C  0.11661715  0.95637346  0.27914555     0.07300
C1468       C  0.10789372  0.96682440  0.25804374    -0.14800
H1469       H  0.11710064  0.99844634  0.23010094     0.11300
H1470       H  0.17407980  0.00641329  0.29128141     0.11300
H1471       H  0.14713874  0.96392763  0.30852723     0.11300
H1472       H  0.08984268  0.95553162  0.24792916     0.11300
C1473       C  0.47572506  0.84993679  0.37179426    -0.14800
C1474       C  0.45058585  0.83834663  0.36330423     0.07300
C1475       C  0.44077330  0.81652994  0.34621595    -0.14800
C1476       C  0.45649538  0.80780515  0.33583155    -0.14800
C1477       C  0.48213659  0.82063710  0.34273115     0.07300
C1478       C  0.49118753  0.84119903  0.36181308    -0.14800
H1479       H  0.48381462  0.86656371  0.38531400     0.11300
H1480       H  0.42144187  0.80717281  0.33942068     0.11300
H1481       H  0.44887941  0.79185064  0.32125826     0.11300
H1482       H  0.51069088  0.85155031  0.36787252     0.11300
C1483       C  0.44056495  0.88675058  0.26906664    -0.14800
C1484       C  0.43154848  0.90256199  0.27758765     0.07300
C1485       C  0.42490708  0.91440280  0.25587853    -0.14800
C1486       C  0.42733884  0.91046098  0.22594119    -0.14800
C1487       C  0.43558393  0.89397738  0.21753307     0.07300
C1488       C  0.44225700  0.88223766  0.23930229    -0.14800
H1489       H  0.44546745  0.87714764  0.28548452     0.11300
H1490       H  0.41780634  0.92655985  0.26208730     0.11300
H1491       H  0.42219523  0.91975992  0.20938008     0.11300
H1492       H  0.44893460  0.86967992  0.23326891     0.11300
C1493       C  0.46701610  0.90697201  0.47578889    -0.14800
C1494       C  0.44185614  0.89326068  0.46757985     0.07300
C1495       C  0.42327101  0.88438017  0.48939254    -0.14800
C1496       C  0.42926774  0.88820195  0.01897514    -0.14800
C1497       C  0.45432436  0.90190143  0.02770878     0.07300
C1498       C  0.47352092  0.91100876  0.50567295    -0.14800
H1499       H  0.48159151  0.91401545  0.45912805     0.11300
H1500       H  0.40375155  0.87403819  0.48343153     0.11300
H1501       H  0.41438752  0.87992131  0.03523160     0.11300
H1502       H  0.49255048  0.92270769  0.01224936     0.11300
C1503       C  0.35018578  0.88023343  0.46650999    -0.14800
C1504       C  0.34236339  0.87467949  0.43705786     0.07300
C1505       C  0.31686572  0.86227875  0.43050274    -0.14800
C1506       C  0.29932698  0.85329332  0.45340032    -0.14800
C1507       C  0.30719555  0.85726741  0.48294466     0.07300
C1508       C  0.33263236  0.87187757  0.48937870    -0.14800
H1509       H  0.36983548  0.88937836  0.47187226     0.11300
H1510       H  0.31058443  0.85739501  0.40789659     0.11300
H1511       H  0.27975887  0.84162904  0.44814701     0.11300
H1512       H  0.33901225  0.87490244  0.01207387     0.11300
C1513       C  0.32163577  0.82935705  0.30472499    -0.14800
C1514       C  0.33104198  0.82175188  0.32833292     0.07300
C1515       C  0.31617862  0.79744720  0.33991138    -0.14800
C1516       C  0.29166184  0.78206028  0.32982766    -0.14800
C1517       C  0.28166837  0.79086141  0.30821191     0.07300
C1518       C  0.29725551  0.81419019  0.29494886    -0.14800
H1519       H  0.33257221  0.84777037  0.29499075     0.11300
H1520       H  0.32281771  0.79100504  0.35814590     0.11300
H1521       H  0.27999954  0.76415543  0.34042573     0.11300
H1522       H  0.29012723  0.82128618  0.27794115     0.11300
C1523       C  0.62585028  0.18342002  0.41550333    -0.14800
C1524       C  0.61536700  0.16370967  0.39514497     0.07300
C1525       C  0.63031751  0.15451074  0.38379826    -0.14800
C1526       C  0.65467496  0.16375843  0.39364394    -0.14800
C1527       C  0.66481696  0.18234165  0.41542715     0.07300
C1528       C  0.65035757  0.19259636  0.42568527    -0.14800
H1529       H  0.61467871  0.19073040  0.42476625     0.11300
H1530       H  0.62285281  0.13947366  0.36789650     0.11300
H1531       H  0.66516011  0.15542335  0.38509875     0.11300
H1532       H  0.65748263  0.20676964  0.44264224     0.11300
C1533       C  0.44706653  0.01588325  0.37095888    -0.14800
C1534       C  0.47052467  0.02777259  0.38484334     0.07300
C1535       C  0.47939583  0.01293080  0.39740108    -0.14800
C1536       C  0.46600357  0.98707400  0.39492452    -0.14800
C1537       C  0.44326100  0.97507762  0.37972536     0.07300
C1538       C  0.43350595  0.98964404  0.36837564    -0.14800
H1539       H  0.43970784  0.02684539  0.36121000     0.11300
H1540       H  0.49707465  0.02137088  0.40885777     0.11300
H1541       H  0.47385240  0.97644057  0.40440674     0.11300
H1542       H  0.41602701  0.98089211  0.35651985     0.11300
C1543       C  0.55686474  0.11827349  0.48814559    -0.14800
C1544       C  0.53217872  0.10212511  0.47945436     0.07300
C1545       C  0.51364137  0.09093609  0.00123968    -0.14800
C1546       C  0.51989242  0.09441768  0.03129143    -0.14800
C1547       C  0.54479672  0.10990798  0.03987140     0.07300
C1548       C  0.56337290  0.12109426  0.01815010    -0.14800
H1549       H  0.57139921  0.12829050  0.47187986     0.11300
H1550       H  0.49428369  0.07943440  0.99493587     0.11300
H1551       H  0.50530635  0.08556538  0.04776173     0.11300
H1552       H  0.58276214  0.13287753  0.02426622     0.11300
C1553       C  0.56078964  0.09240204  0.28114073    -0.14800
C1554       C  0.55132404  0.10764148  0.29042254     0.07300
C1555       C  0.54367162  0.11906746  0.26938515    -0.14800
C1556       C  0.54565251  0.11556690  0.23940889    -0.14800
C1557       C  0.55588545  0.10105094  0.22988937     0.07300
C1558       C  0.56344690  0.08943157  0.25093999    -0.14800
H1559       H  0.56678708  0.08346192  0.29719613     0.11300
H1560       H  0.53612696  0.13072024  0.27618509     0.11300
H1561       H  0.53993138  0.12495066  0.22364285     0.11300
H1562       H  0.57144773  0.07822838  0.24404926     0.11300
C1563       C  0.47633546  0.12457250  0.28780986    -0.14800
C1564       C  0.47378142  0.12958046  0.31743627     0.07300
C1565       C  0.46001825  0.14122898  0.32441630    -0.14800
C1566       C  0.45088773  0.14987409  0.30184787    -0.14800
C1567       C  0.45480557  0.14626679  0.27215466     0.07300
C1568       C  0.46652938  0.13254791  0.26525561    -0.14800
H1569       H  0.48725515  0.11593226  0.28209856     0.11300
H1570       H  0.45836381  0.14570037  0.34715321     0.11300
H1571       H  0.44234863  0.16089435  0.30747258     0.11300
H1572       H  0.47025504  0.13018098  0.24244250     0.11300
C1573       C  0.48918832  0.19159221  0.46055122    -0.14800
C1574       C  0.49529332  0.21381762  0.44545409     0.07300
C1575       C  0.51198150  0.22117501  0.42150184    -0.14800
C1576       C  0.52082025  0.20548947  0.41148517    -0.14800
C1577       C  0.51318844  0.18229524  0.42538935     0.07300
C1578       C  0.49812072  0.17612114  0.45079704    -0.14800
H1579       H  0.47644166  0.18556645  0.47918350     0.11300
H1580       H  0.51673430  0.23807170  0.40930385     0.11300
H1581       H  0.53224600  0.21075005  0.39170861     0.11300
H1582       H  0.49201338  0.15857888  0.46221445     0.11300
C1583       C  0.50096457  0.34315819  0.39206518    -0.14800
C1584       C  0.50858724  0.33318115  0.41504507     0.07300
C1585       C  0.53289990  0.34785054  0.42638073    -0.14800
C1586       C  0.54844536  0.37251543  0.41628609    -0.14800
C1587       C  0.53981237  0.38288735  0.39491302     0.07300
C1588       C  0.51626572  0.36763408  0.38229619    -0.14800
H1589       H  0.48252402  0.33247747  0.38256968     0.11300
H1590       H  0.53934695  0.34081930  0.44418107     0.11300
H1591       H  0.56647195  0.38392342  0.42649993     0.11300
H1592       H  0.50920736  0.37503365  0.36557994     0.11300
C1593       C  0.42111836  0.24254721  0.33849137    -0.14800
C1594       C  0.43011531  0.23240895  0.35975165     0.07300
C1595       C  0.44203909  0.21938596  0.35039460    -0.14800
C1596       C  0.44555500  0.21714012  0.32048215    -0.14800
C1597       C  0.43671326  0.22732341  0.29928827     0.07300
C1598       C  0.42407805  0.23967991  0.30833136    -0.14800
H1599       H  0.41189013  0.25269960  0.34518782     0.11300
H1600       H  0.44934573  0.21152521  0.36623198     0.11300
H1601       H  0.45518977  0.20736980  0.31383876     0.11300
H1602       H  0.41717115  0.24765424  0.29214323     0.11300
C1603       C  0.44298014  0.23125315  0.10079522    -0.14800
C1604       C  0.42905116  0.20621069  0.10988678     0.07300
C1605       C  0.41942766  0.18726181  0.08849521    -0.14800
C1606       C  0.42358923  0.19339805  0.05841424    -0.14800
C1607       C  0.43811484  0.21844877  0.04960880     0.07300
C1608       C  0.44774804  0.23726036  0.07099273    -0.14800
H1609       H  0.45092143  0.24621757  0.11678991     0.11300
H1610       H  0.40878266  0.16780983  0.09503499     0.11300
H1611       H  0.41600652  0.17865187  0.04211687     0.11300
H1612       H  0.45888671  0.25672596  0.06459079     0.11300
C1613       C  0.14540400  0.03824586  0.99829161    -0.14800
C1614       C  0.16239990  0.04738323  0.47481809     0.07300
C1615       C  0.16972704  0.03161138  0.46140634    -0.14800
C1616       C  0.16060678  0.00722981  0.47158856    -0.14800
C1617       C  0.14431331  0.99818903  0.99589924     0.07300
C1618       C  0.13628639  0.01373981  0.00872123    -0.14800
H1619       H  0.14026072  0.05038167  0.00971043     0.11300
H1620       H  0.18348834  0.03858054  0.44384084     0.11300
H1621       H  0.16763777  0.99608539  0.46153741     0.11300
H1622       H  0.12425577  0.00756716  0.02796674     0.11300
C1623       C  0.34122541  0.18920145  0.45377500    -0.14800
C1624       C  0.35511037  0.21532776  0.45624058     0.07300
C1625       C  0.34211925  0.22839440  0.46033280    -0.14800
C1626       C  0.31586202  0.21538533  0.46260392    -0.14800
C1627       C  0.30221569  0.18912498  0.46075890     0.07300
C1628       C  0.31536651  0.17639630  0.45594150    -0.14800
H1629       H  0.35033335  0.17837920  0.45023388     0.11300
H1630       H  0.35220819  0.24853445  0.46208111     0.11300
H1631       H  0.30633256  0.22578233  0.46624767     0.11300
H1632       H  0.30569116  0.15626038  0.45408040     0.11300
C1633       C  0.14218670  0.18010217  0.03950379    -0.14800
C1634       C  0.11796602  0.17039919  0.02823156     0.07300
C1635       C  0.10905804  0.15043032  0.00824393    -0.14800
C1636       C  0.12470808  0.14216903  0.49730070    -0.14800
C1637       C  0.14987087  0.15293620  0.00778959     0.07300
C1638       C  0.15782380  0.17146936  0.02958036    -0.14800
H1639       H  0.14950960  0.19531039  0.05519204     0.11300
H1640       H  0.09093651  0.14417140  0.49776330     0.11300
H1641       H  0.11823882  0.12885463  0.47938611     0.11300
H1642       H  0.17671414  0.18038903  0.03791795     0.11300
C1643       C  0.21130951  0.10463455  0.06930824    -0.14800
C1644       C  0.22701115  0.12944460  0.06027983     0.07300
C1645       C  0.23857294  0.14820308  0.08163405    -0.14800
C1646       C  0.23466633  0.14212000  0.11168801    -0.14800
C1647       C  0.21853731  0.11736492  0.12057299     0.07300
C1648       C  0.20687691  0.09871248  0.09918188    -0.14800
H1649       H  0.20188389  0.08990984  0.05324632     0.11300
H1650       H  0.25062750  0.16749312  0.07506646     0.11300
H1651       H  0.24379777  0.15674417  0.12794195     0.11300
H1652       H  0.19446547  0.07943600  0.10560281     0.11300
C1653       C  0.23340706  0.09873652  0.36195691    -0.14800
C1654       C  0.22086269  0.11125215  0.37074964     0.07300
C1655       C  0.21262826  0.12187956  0.34938711    -0.14800
C1656       C  0.21643930  0.11968668  0.31953080    -0.14800
C1657       C  0.22805122  0.10629925  0.31043077     0.07300
C1658       C  0.23666338  0.09593485  0.33187319    -0.14800
H1659       H  0.23993715  0.09049719  0.37828201     0.11300
H1660       H  0.20319251  0.13188177  0.35584381     0.11300
H1661       H  0.20946704  0.12775003  0.30353048     0.11300
H1662       H  0.24566414  0.08554207  0.32538543     0.11300
C1663       C  0.44128003  0.63341709  0.09363905    -0.14800
C1664       C  0.45006142  0.62291393  0.11461365     0.07300
C1665       C  0.47372139  0.63804547  0.12704986    -0.14800
C1666       C  0.48905611  0.66253951  0.11727489    -0.14800
C1667       C  0.48128394  0.67256266  0.09450763     0.07300
C1668       C  0.45681500  0.65804201  0.08356696    -0.14800
H1669       H  0.42316404  0.62210846  0.08360881     0.11300
H1670       H  0.48085254  0.63050418  0.14350284     0.11300
H1671       H  0.50762138  0.67313138  0.12644633     0.11300
H1672       H  0.45023057  0.66511789  0.06594945     0.11300
C1673       C  0.31716027  0.52847383  0.09288796    -0.14800
C1674       C  0.33187137  0.51911105  0.08091492     0.07300
C1675       C  0.32255571  0.50273301  0.05682384    -0.14800
C1676       C  0.29833620  0.49405489  0.04681360    -0.14800
C1677       C  0.28289195  0.50170236  0.06041757     0.07300
C1678       C  0.29282028  0.51985220  0.08263323    -0.14800
H1679       H  0.32375692  0.54106528  0.11150874     0.11300
H1680       H  0.33342661  0.49536342  0.04682803     0.11300
H1681       H  0.29115771  0.48024319  0.02942554     0.11300
H1682       H  0.28118963  0.52589584  0.09356732     0.11300
C1683       C  0.42337821  0.52043541  0.00681767    -0.14800
C1684       C  0.43070203  0.53917500  0.02828402     0.07300
C1685       C  0.44053370  0.56409099  0.01922492    -0.14800
C1686       C  0.44252689  0.57076676  0.48945048    -0.14800
C1687       C  0.43547517  0.55219271  0.46795505     0.07300
C1688       C  0.42636499  0.52731711  0.47681067    -0.14800
H1689       H  0.41565226  0.50108308  0.01333424     0.11300
H1690       H  0.44602876  0.57886084  0.03529154     0.11300
H1691       H  0.44984129  0.59012558  0.48310492     0.11300
H1692       H  0.42084046  0.51272748  0.46048605     0.11300
C1693       C  0.42534774  0.55292257  0.23966361    -0.14800
C1694       C  0.44388018  0.55960430  0.21804068     0.07300
C1695       C  0.46868931  0.56867336  0.22667078    -0.14800
C1696       C  0.47492733  0.57173239  0.25670131    -0.14800
C1697       C  0.45624847  0.56496843  0.27824796     0.07300
C1698       C  0.43142732  0.55533653  0.26944546    -0.14800
H1699       H  0.40604652  0.54565969  0.23350921     0.11300
H1700       H  0.48324015  0.57392438  0.21022869     0.11300
H1701       H  0.49419581  0.57927418  0.26309379     0.11300
H1702       H  0.41672996  0.55028908  0.28564186     0.11300
C1703       C  0.62677895  0.45089581  0.16431425    -0.14800
C1704       C  0.61647161  0.45961605  0.14301042     0.07300
C1705       C  0.63170210  0.48327835  0.13028029    -0.14800
C1706       C  0.65613325  0.49861592  0.13994247    -0.14800
C1707       C  0.66597623  0.49088897  0.16297426     0.07300
C1708       C  0.65130148  0.46645496  0.17433426    -0.14800
H1709       H  0.61538289  0.43279459  0.17460880     0.11300
H1710       H  0.62429673  0.49038492  0.11362313     0.11300
H1711       H  0.66681057  0.51715123  0.13044744     0.11300
H1712       H  0.65820682  0.45988826  0.19215783     0.11300
C1713       C  0.55757460  0.44900516  0.23866797    -0.14800
C1714       C  0.53288571  0.44024804  0.22989413     0.07300
C1715       C  0.51438656  0.43436562  0.25142666    -0.14800
C1716       C  0.52063738  0.43732499  0.28144915    -0.14800
C1717       C  0.54526024  0.44534971  0.29009853     0.07300
C1718       C  0.56362828  0.45124944  0.26847101    -0.14800
H1719       H  0.57208021  0.45340091  0.22246230     0.11300
H1720       H  0.49520980  0.42755846  0.24501056     0.11300
H1721       H  0.50623356  0.43279810  0.29786132     0.11300
H1722       H  0.58284914  0.45780258  0.27465005     0.11300
C1723       C  0.56268379  0.47815094  0.03108133    -0.14800
C1724       C  0.55265290  0.45307898  0.03965304     0.07300
C1725       C  0.54497840  0.43456983  0.01797847    -0.14800
C1726       C  0.54911131  0.44106808  0.48791385    -0.14800
C1727       C  0.55833971  0.46598148  0.47929986     0.07300
C1728       C  0.56586304  0.48465919  0.00104180    -0.14800
H1729       H  0.56865250  0.49268787  0.04757242     0.11300
H1730       H  0.53691023  0.41508991  0.02409758     0.11300
H1731       H  0.54442416  0.42659588  0.47158822     0.11300
H1732       H  0.57419235  0.50410714  0.99472596     0.11300
C1733       C  0.46127435  0.32613335  0.07675806    -0.14800
C1734       C  0.47160212  0.35157392  0.07017561     0.07300
C1735       C  0.47149379  0.35906806  0.04088095    -0.14800
C1736       C  0.46264714  0.34141832  0.01813539    -0.14800
C1737       C  0.45458901  0.31628154  0.02444091     0.07300
C1738       C  0.45304792  0.30861781  0.05399375    -0.14800
H1739       H  0.46176340  0.32010799  0.09915345     0.11300
H1740       H  0.47991900  0.37870320  0.03539370     0.11300
H1741       H  0.46444765  0.34775427  0.99541752     0.11300
H1742       H  0.44715247  0.28935869  0.05922869     0.11300
C1743       C  0.48510770  0.47939054  0.12288723    -0.14800
C1744       C  0.47295265  0.45402604  0.13084339     0.07300
C1745       C  0.44700355  0.44159644  0.13588426    -0.14800
C1746       C  0.43375948  0.45460070  0.13345681    -0.14800
C1747       C  0.44632961  0.48019763  0.12605547     0.07300
C1748       C  0.47210693  0.49219060  0.12059483    -0.14800
H1749       H  0.50496991  0.48965018  0.11853510     0.11300
H1750       H  0.43709371  0.42207132  0.14215293     0.11300
H1751       H  0.41389494  0.44479179  0.13772806     0.11300
H1752       H  0.48250821  0.51174165  0.11444555     0.11300
C1753       C  0.52188938  0.32506114  0.16420428    -0.14800
C1754       C  0.51293841  0.33989952  0.17686167     0.07300
C1755       C  0.49624543  0.33012444  0.20078999    -0.14800
C1756       C  0.48689670  0.30547716  0.20997276    -0.14800
C1757       C  0.49421014  0.29001439  0.19577191     0.07300
C1758       C  0.51262907  0.30027609  0.17368881    -0.14800
H1759       H  0.53466788  0.33196946  0.14565612     0.11300
H1760       H  0.48913710  0.34103156  0.21129171     0.11300
H1761       H  0.47295512  0.29808133  0.22733319     0.11300
H1762       H  0.51849787  0.28867090  0.16236168     0.11300
C1763       C  0.21252931  0.51987418  0.33412426    -0.14800
C1764       C  0.20368423  0.50065713  0.31315410     0.07300
C1765       C  0.18011398  0.49233197  0.30056102    -0.14800
C1766       C  0.16488911  0.50154182  0.31025129    -0.14800
C1767       C  0.17266426  0.51915911  0.33312448     0.07300
C1768       C  0.19708801  0.52899436  0.34414169    -0.14800
H1769       H  0.23060926  0.52658173  0.34421629     0.11300
H1770       H  0.17294690  0.47775455  0.28406162     0.11300
H1771       H  0.14637943  0.49369244  0.30096309     0.11300
H1772       H  0.20369979  0.54257755  0.36176808     0.11300
C1773       C  0.23247809  0.42574678  0.42021717    -0.14800
C1774       C  0.22239435  0.43478581  0.39893606     0.07300
C1775       C  0.21008694  0.44743576  0.40821418    -0.14800
C1776       C  0.20854598  0.45172556  0.43803257    -0.14800
C1777       C  0.21878418  0.44297555  0.45925571     0.07300
C1778       C  0.23032127  0.42950269  0.45032987    -0.14800
H1779       H  0.24208123  0.41600281  0.41358452     0.11300
H1780       H  0.20231466  0.45481876  0.39232228     0.11300
H1781       H  0.19928651  0.46185445  0.44455308     0.11300
H1782       H  0.23823798  0.42253665  0.46655597     0.11300
C1783       C  0.22918549  0.45562304  0.18846768    -0.14800
C1784       C  0.21007336  0.44368971  0.20945401     0.07300
C1785       C  0.18553217  0.42780873  0.20006160    -0.14800
C1786       C  0.18009904  0.42473200  0.16984285    -0.14800
C1787       C  0.19931176  0.43690586  0.14890596     0.07300
C1788       C  0.22390100  0.45206991  0.15850305    -0.14800
H1789       H  0.24831329  0.46767469  0.19527423     0.11300
H1790       H  0.17057959  0.41835546  0.21602464     0.11300
H1791       H  0.16099852  0.41292486  0.16283028     0.11300
H1792       H  0.23902030  0.46182370  0.14278987     0.11300
C1793       C  0.30023679  0.45741908  0.20604629    -0.14800
C1794       C  0.30777865  0.46102940  0.23571789     0.07300
C1795       C  0.33313827  0.47145447  0.24244090    -0.14800
C1796       C  0.35093809  0.48043289  0.21975557    -0.14800
C1797       C  0.34348167  0.47831412  0.19013070     0.07300
C1798       C  0.31799703  0.46568753  0.18334551    -0.14800
H1799       H  0.28075710  0.44977478  0.20050179     0.11300
H1800       H  0.33930246  0.47485463  0.26520722     0.11300
H1801       H  0.37055633  0.49060955  0.22537797     0.11300
H1802       H  0.31194427  0.46441298  0.16064381     0.11300
C1803       C  0.33634880  0.53857698  0.33567506    -0.14800
C1804       C  0.32273863  0.51341569  0.34501152     0.07300
C1805       C  0.33366900  0.50490793  0.36575553    -0.14800
C1806       C  0.35809460  0.52032550  0.37506932    -0.14800
C1807       C  0.37236389  0.54484903  0.36423105     0.07300
C1808       C  0.36097973  0.55423890  0.34534414    -0.14800
H1809       H  0.32850713  0.54575019  0.31967789     0.11300
H1810       H  0.32384434  0.48579893  0.37367928     0.11300
H1811       H  0.36621195  0.51263856  0.38998802     0.11300
H1812       H  0.37154672  0.57306414  0.33666831     0.11300
C1813       C  0.02341931  0.17511447  0.29395486    -0.14800
C1814       C  0.03922969  0.16788358  0.28041963     0.07300
C1815       C  0.02962555  0.14997844  0.25787868    -0.14800
C1816       C  0.00523552  0.14109002  0.24745872    -0.14800
C1817       C  0.99007536  0.14990379  0.25955751     0.07300
C1818       C  0.99916034  0.16616906  0.28378719    -0.14800
H1819       H  0.03030562  0.18875787  0.31153477     0.11300
H1820       H  0.04150550  0.14426975  0.24691191     0.11300
H1821       H  0.99889792  0.12865132  0.22868800     0.11300
H1822       H  0.98802036  0.17319060  0.29386909     0.11300
C1823       C  0.20624015  0.32194396  0.29233673    -0.14800
C1824       C  0.17998742  0.30829044  0.29286699     0.07300
C1825       C  0.16705580  0.32130362  0.29710007    -0.14800
C1826       C  0.17973374  0.34707320  0.30036095    -0.14800
C1827       C  0.20590079  0.36095291  0.29956824     0.07300
C1828       C  0.21911270  0.34810586  0.29566195    -0.14800
H1829       H  0.21675746  0.31248554  0.28911109     0.11300
H1830       H  0.14689126  0.31158839  0.29785524     0.11300
H1831       H  0.16879434  0.35610033  0.30352276     0.11300
H1832       H  0.23927893  0.35823052  0.29505528     0.11300
C1833       C  0.17114188  0.14838960  0.21316639    -0.14800
C1834       C  0.16233675  0.12446692  0.22526555     0.07300
C1835       C  0.14302080  0.11548808  0.24630376    -0.14800
C1836       C  0.13427225  0.13111853  0.25683249    -0.14800
C1837       C  0.14457666  0.15584234  0.24625816     0.07300
C1838       C  0.16232045  0.16379104  0.22336126    -0.14800
H1839       H  0.18581145  0.15568653  0.19663408     0.11300
H1840       H  0.13594723  0.09714467  0.25601859     0.11300
H1841       H  0.12056469  0.12436164  0.27446850     0.11300
H1842       H  0.17052038  0.18251788  0.21438631     0.11300
C1843       C  0.18009153  0.21332577  0.38475803    -0.14800
C1844       C  0.18439851  0.21019731  0.35503916     0.07300
C1845       C  0.19986792  0.20043877  0.34803468    -0.14800
C1846       C  0.20867014  0.19132304  0.37048784    -0.14800
C1847       C  0.20270888  0.19270927  0.40009234     0.07300
C1848       C  0.18951823  0.20491145  0.40721231    -0.14800
H1849       H  0.16788891  0.22046613  0.39045189     0.11300
H1850       H  0.20294053  0.19745535  0.32514383     0.11300
H1851       H  0.21842346  0.18153621  0.36469727     0.11300
H1852       H  0.18430784  0.20560276  0.42996399     0.11300
C1853       C  0.14108647  0.24378859  0.17212501    -0.14800
C1854       C  0.12205982  0.23345138  0.19353109     0.07300
C1855       C  0.09712642  0.21941711  0.18449842    -0.14800
C1856       C  0.09131287  0.21528408  0.15466140    -0.14800
C1857       C  0.11024745  0.22552884  0.13326477     0.07300
C1858       C  0.13516757  0.24015990  0.14207305    -0.14800
H1859       H  0.16046224  0.25461240  0.17863261     0.11300
H1860       H  0.08212035  0.21100947  0.20053363     0.11300
H1861       H  0.07191358  0.20419924  0.14826230     0.11300
H1862       H  0.14999044  0.24826821  0.12578635     0.11300
C1863       C  0.09468201  0.24317911  0.39238806    -0.14800
C1864       C  0.10371821  0.22742856  0.38354583     0.07300
C1865       C  0.11161609  0.21652547  0.40498860    -0.14800
C1866       C  0.11010907  0.22085540  0.43482781    -0.14800
C1867       C  0.10015057  0.23574147  0.44391676     0.07300
C1868       C  0.09251176  0.24699582  0.42249625    -0.14800
H1869       H  0.08867085  0.25191041  0.37608458     0.11300
H1870       H  0.11901749  0.20464107  0.39864344     0.11300
H1871       H  0.11596251  0.21178463  0.45086747     0.11300
H1872       H  0.08480206  0.25855329  0.42903064     0.11300
Fe1873     Fe  0.11137440  0.23647916  0.78805402     1.65800
Fe1874     Fe  0.16227169  0.23140704  0.77277049     1.73200
Fe1875     Fe  0.11314885  0.18608047  0.81253293     1.54400
O1876       O  0.10209321  0.20139491  0.84610395    -0.83100
O1877       O  0.15383151  0.19729259  0.75524448    -0.81500
O1878       O  0.11158891  0.24016171  0.83299479    -0.85700
O1879       O  0.07601873  0.20597107  0.79045677    -0.80500
O1880       O  0.14493817  0.19669029  0.83672800    -0.82300
O1881       O  0.14938397  0.23891249  0.73373604    -0.85000
C1882       C  0.06632089  0.18261666  0.78787763     0.95700
C1883       C  0.10581958  0.22312427  0.85225394     1.03200
O1884       O  0.12918314  0.21792893  0.79115738    -1.14000
O1885       O  0.17612906  0.26764531  0.78813253    -0.76400
O1886       O  0.14249324  0.27113916  0.78536586    -0.79900
O1887       O  0.07920591  0.17198111  0.79032018    -0.80600
C1888       C  0.16575019  0.28080655  0.78846861     0.94600
O1889       O  0.11106694  0.23272785  0.74321828    -0.78600
O1890       O  0.17755832  0.22442784  0.80978675    -0.83800
C1891       C  0.13977193  0.17443255  0.76200040     0.97300
C1892       C  0.16819879  0.21082453  0.83263802     1.03200
O1893       O  0.12351430  0.16745869  0.78246731    -0.79400
C1894       C  0.12823959  0.23556163  0.72541761     1.01500
Fe1895     Fe  0.20848529  0.43264862  0.80443763     1.65800
Fe1896     Fe  0.26483243  0.43823845  0.81904063     1.73200
Fe1897     Fe  0.26062354  0.48412715  0.78106241     1.54400
O1898       O  0.23478247  0.46930345  0.74726624    -0.83100
O1899       O  0.29091679  0.47229079  0.83608901    -0.81500
O1900       O  0.20535253  0.43032336  0.75940267    -0.85700
O1901       O  0.20330249  0.46293761  0.80375853    -0.80500
O1902       O  0.28260283  0.47457371  0.75649848    -0.82300
O1903       O  0.24495724  0.43089271  0.85862181    -0.85000
C1904       C  0.21655031  0.48636438  0.80596081     0.95700
C1905       C  0.21684624  0.44773802  0.74062390     1.03200
O1906       O  0.24491696  0.45173267  0.80154145    -1.14000
O1907       O  0.24245187  0.40181805  0.80428684    -0.76400
O1908       O  0.20519417  0.39809219  0.80530917    -0.79900
O1909       O  0.24008655  0.49744257  0.80334837    -0.80600
C1910       C  0.21895986  0.38855430  0.80310779     0.94600
O1911       O  0.21143755  0.43485425  0.84944723    -0.78600
O1912       O  0.28647499  0.44524528  0.78121562    -0.83800
C1913       C  0.29919008  0.49524935  0.83049343     0.97300
C1914       C  0.29129464  0.45993706  0.75928777     1.03200
O1915       O  0.28915335  0.50254320  0.81144666    -0.79400
C1916       C  0.22629749  0.43279853  0.86713619     1.01500
Fe1917     Fe  0.54351715  0.45344492  0.63470143     1.65800
Fe1918     Fe  0.54275346  0.40127502  0.61162025     1.73200
Fe1919     Fe  0.49325321  0.39661541  0.65138190     1.54400
O1920       O  0.50635692  0.41668016  0.69053533    -0.83100
O1921       O  0.51074218  0.37872869  0.58819624    -0.81500
O1922       O  0.54309340  0.45089253  0.67986336    -0.85700
O1923       O  0.51187683  0.45604728  0.63503367    -0.80500
O1924       O  0.50197674  0.37090997  0.66819410    -0.82300
O1925       O  0.55310530  0.42687518  0.57728415    -0.85000
C1926       C  0.48849952  0.44201202  0.63450978     0.95700
C1927       C  0.52682375  0.43583975  0.69817016     1.03200
O1928       O  0.52626915  0.41687530  0.63252569    -1.14000
O1929       O  0.57688546  0.42214808  0.63308273    -0.76400
O1930       O  0.57914637  0.45895722  0.63441442    -0.79900
O1931       O  0.47842566  0.41857823  0.63747756    -0.80600
C1932       C  0.58925416  0.44563817  0.63643080     0.94600
O1933       O  0.54445793  0.45674573  0.58952515    -0.78600
O1934       O  0.53351446  0.37300589  0.64230665    -0.83800
C1935       C  0.48744147  0.36968163  0.59187205     0.97300
C1936       C  0.51671169  0.36290557  0.66199558     1.03200
O1937       O  0.47795648  0.37461377  0.61402492    -0.79400
C1938       C  0.55015412  0.44526343  0.57065252     1.01500
Fe1939     Fe  0.44519375  0.55054559  0.62299035     1.65800
Fe1940     Fe  0.38878054  0.50004459  0.60804846     1.73200
Fe1941     Fe  0.39355603  0.55000752  0.64635873     1.54400
O1942       O  0.41990634  0.56151232  0.67968347    -0.83100
O1943       O  0.36339848  0.50871428  0.59023663    -0.81500
O1944       O  0.44826710  0.55052891  0.66812263    -0.85700
O1945       O  0.45066628  0.58616942  0.62463217    -0.80500
O1946       O  0.37193816  0.51856163  0.67142401    -0.82300
O1947       O  0.40917964  0.51279768  0.56862816    -0.85000
C1948       C  0.43737519  0.59615988  0.62117127     0.95700
C1949       C  0.43739612  0.55730409  0.68666430     1.03200
O1950       O  0.40885938  0.53322298  0.62587366    -1.14000
O1951       O  0.41070607  0.48557448  0.62344754    -0.76400
O1952       O  0.44807272  0.51903841  0.62091719    -0.79900
O1953       O  0.41381008  0.58350569  0.62307498    -0.80600
C1954       C  0.43422416  0.49568747  0.62339751     0.94600
O1955       O  0.44201946  0.55077526  0.57799225    -0.78600
O1956       O  0.36649438  0.48531613  0.64560549    -0.83800
C1957       C  0.35507042  0.52315879  0.59661898     0.97300
C1958       C  0.36238432  0.49515113  0.66804804     1.03200
O1959       O  0.36472150  0.53965486  0.61656027    -0.79400
C1960       C  0.42733755  0.53388032  0.56020232     1.01500
Fe1961     Fe  0.23079546  0.11943649  0.96561770     1.65800
Fe1962     Fe  0.22558866  0.17023036  0.98178909     1.73200
Fe1963     Fe  0.18017461  0.12110275  0.94296358     1.54400
O1964       O  0.19476324  0.10930745  0.90936745    -0.83100
O1965       O  0.19083385  0.16173905  0.49955704    -0.81500
O1966       O  0.23406291  0.12003649  0.92050703    -0.85700
O1967       O  0.20018030  0.08399169  0.96356252    -0.80500
O1968       O  0.19074404  0.15277696  0.91819839    -0.82300
O1969       O  0.23231366  0.15702232  0.52061772    -0.85000
C1970       C  0.17704290  0.07458961  0.96794165     0.95700
C1971       C  0.21645464  0.11357546  0.90208113     1.03200
O1972       O  0.21220985  0.13726809  0.96339492    -1.14000
O1973       O  0.26210456  0.18438440  0.96663539    -0.76400
O1974       O  0.26552897  0.15060534  0.96781279    -0.79900
O1975       O  0.16658137  0.08767890  0.96639337    -0.80600
C1976       C  0.27528538  0.17401703  0.96568690     0.94600
O1977       O  0.22741052  0.11922482  0.51069658    -0.78600
O1978       O  0.21863656  0.18554095  0.94462891    -0.83800
C1979       C  0.16862984  0.14819544  0.99283898     0.97300
C1980       C  0.20485662  0.17609338  0.92205214     1.03200
O1981       O  0.16168016  0.13180849  0.97272013    -0.79400
C1982       C  0.22958631  0.13598832  0.52866628     1.01500
Fe1983     Fe  0.42830716  0.21815538  0.95467671     1.65800
Fe1984     Fe  0.43353463  0.27461188  0.94006174     1.73200
Fe1985     Fe  0.47906679  0.27036372  0.97820830     1.54400
O1986       O  0.46286510  0.24252098  0.51147561    -0.83100
O1987       O  0.46763351  0.30126312  0.92325089    -0.81500
O1988       O  0.42564340  0.21451513  0.99973868    -0.85700
O1989       O  0.45906484  0.21356503  0.95516909    -0.80500
O1990       O  0.46726303  0.29025896  0.50364637    -0.82300
O1991       O  0.42710658  0.25525162  0.90031934    -0.85000
C1992       C  0.48232926  0.22749999  0.95186825     0.95700
C1993       C  0.44108538  0.22483985  0.51816545     1.03200
O1994       O  0.44695273  0.25464057  0.95765283    -1.14000
O1995       O  0.39682199  0.25164280  0.95405443    -0.76400
O1996       O  0.39349830  0.21445917  0.95378852    -0.79900
O1997       O  0.49286165  0.25099760  0.95458587    -0.80600
C1998       C  0.38368715  0.22806593  0.95522607     0.94600
O1999       O  0.43084294  0.22152655  0.90964040    -0.78600
O2000       O  0.43983948  0.29564315  0.97834245    -0.83800
C2001       C  0.49046912  0.30985614  0.92934222     0.97300
C2002       C  0.45384820  0.29974716  0.00071957     1.03200
O2003       O  0.49752862  0.29988580  0.94873375    -0.79400
C2004       C  0.42903902  0.23657098  0.89187540     1.01500
Fe2005     Fe  0.54234438  0.09822695  0.88487149     1.65800
Fe2006     Fe  0.54393541  0.15023038  0.86116371     1.73200
Fe2007     Fe  0.49356437  0.10666884  0.90049776     1.54400
O2008       O  0.47777271  0.07017140  0.88494236    -0.83100
O2009       O  0.53341564  0.16961701  0.88949985    -0.81500
O2010       O  0.51004843  0.06438210  0.88799085    -0.85700
O2011       O  0.54307776  0.10193618  0.92981441    -0.80500
O2012       O  0.47976371  0.11531865  0.86305082    -0.82300
O2013       O  0.57636443  0.16244183  0.88574711    -0.85000
C2014       C  0.52643867  0.10018844  0.94782883     0.95700
C2015       C  0.48687318  0.05586212  0.88555412     1.03200
O2016       O  0.52627475  0.11838290  0.88218453    -1.14000
O2017       O  0.55593832  0.13496585  0.82877048    -0.76400
O2018       O  0.54158392  0.09474895  0.83972457    -0.79900
O2019       O  0.50565512  0.09798181  0.93967642    -0.80600
C2020       C  0.54968723  0.11274384  0.82134103     0.94600
O2021       O  0.57839531  0.12787558  0.88242065    -0.78600
O2022       O  0.51319804  0.14052530  0.83531245    -0.83800
C2023       C  0.51774904  0.16363792  0.91041381     0.97300
C2024       C  0.48978182  0.12793668  0.83959983     1.03200
O2025       O  0.50371478  0.14112758  0.91849802    -0.79400
C2026       C  0.58859636  0.15106820  0.88726650     1.01500
Fe2027     Fe  0.44382789  0.90512237  0.87251927     1.65800
Fe2028     Fe  0.39186435  0.85291117  0.89468687     1.73200
Fe2029     Fe  0.38725250  0.89805730  0.85514329     1.54400
O2030       O  0.40850259  0.93471812  0.86975610    -0.83100
O2031       O  0.36392097  0.83409185  0.86376101    -0.81500
O2032       O  0.44610336  0.93926628  0.87258338    -0.85700
O2033       O  0.44208692  0.90337760  0.82733904    -0.80500
O2034       O  0.36472761  0.89056441  0.89217183    -0.82300
O2035       O  0.41318427  0.84015961  0.87302593    -0.85000
C2036       C  0.42716954  0.90450477  0.80893673     0.95700
C2037       C  0.43178287  0.94825390  0.87336395     1.03200
O2038       O  0.40739287  0.88534269  0.87414206    -1.14000
O2039       O  0.41697647  0.86779160  0.92935897    -0.76400
O2040       O  0.44620621  0.90688725  0.91768430    -0.79900
O2041       O  0.40799836  0.90583447  0.81639079    -0.80600
C2042       C  0.43480315  0.88932939  0.93629857     0.94600
O2043       O  0.44950773  0.87522617  0.87266997    -0.78600
O2044       O  0.36926730  0.86218242  0.91823756    -0.83800
C2045       C  0.35425797  0.84091905  0.84371540     0.97300
C2046       C  0.36012466  0.87635115  0.91453480     1.03200
O2047       O  0.36229272  0.86374357  0.83761602    -0.79400
C2048       C  0.43671389  0.85178840  0.87006271     1.01500
Fe2049     Fe  0.22922545  0.11955663  0.71545395     1.65800
Fe2050     Fe  0.17812618  0.06767361  0.69279663     1.73200
Fe2051     Fe  0.22342784  0.06324060  0.73120092     1.54400
O2052       O  0.25977871  0.08531293  0.71583281    -0.83100
O2053       O  0.15976311  0.03842800  0.72249069    -0.81500
O2054       O  0.26378731  0.12275392  0.71770427    -0.85700
O2055       O  0.22622553  0.11675066  0.76045101    -0.80500
O2056       O  0.21605136  0.04112281  0.69377766    -0.82300
O2057       O  0.16475185  0.08751396  0.71636926    -0.85000
C2058       C  0.22873554  0.10225098  0.77840445     0.95700
C2059       C  0.27324816  0.10885569  0.71590513     1.03200
O2060       O  0.21023434  0.08317226  0.71318406    -1.14000
O2061       O  0.19261169  0.09425052  0.65932554    -0.76400
O2062       O  0.23215536  0.12223870  0.67034237    -0.79900
O2063       O  0.23113192  0.08377148  0.77025714    -0.80600
C2064       C  0.21443220  0.11141975  0.65199004     0.94600
O2065       O  0.19878359  0.12461733  0.71380756    -0.78600
O2066       O  0.18845138  0.04669325  0.66767512    -0.83800
C2067       C  0.16667756  0.02893242  0.74263337     0.97300
C2068       C  0.20246439  0.03734440  0.67109124     1.03200
O2069       O  0.18944550  0.03764549  0.74919559    -0.79400
C2070       C  0.17556502  0.11111575  0.71805416     1.01500
Fe2071     Fe  0.42513714  0.21724862  0.70467573     1.65800
Fe2072     Fe  0.47640285  0.21631973  0.72712246     1.73200
Fe2073     Fe  0.43090476  0.16653157  0.68888616     1.54400
O2074       O  0.39450248  0.15214285  0.70423538    -0.83100
O2075       O  0.49459989  0.20581429  0.69704386    -0.81500
O2076       O  0.39064287  0.18573456  0.70498996    -0.85700
O2077       O  0.42692619  0.21651774  0.65949045    -0.80500
O2078       O  0.43844666  0.15174088  0.72626851    -0.82300
O2079       O  0.48979791  0.24975388  0.70402353    -0.85000
C2080       C  0.42506322  0.19983156  0.64156611     0.95700
C2081       C  0.38124407  0.16233880  0.70665918     1.03200
O2082       O  0.44412366  0.19976153  0.70692547    -1.14000
O2083       O  0.46222095  0.22806457  0.76100705    -0.76400
O2084       O  0.42322542  0.21839455  0.74986748    -0.79900
O2085       O  0.42314972  0.17916232  0.64976979    -0.80600
C2086       C  0.44086350  0.22467342  0.76818127     0.94600
O2087       O  0.45569415  0.25273058  0.70447776    -0.78600
O2088       O  0.46648695  0.18490659  0.75195300    -0.83800
C2089       C  0.48772025  0.18930813  0.67712789     0.97300
C2090       C  0.45254160  0.16154506  0.74854803     1.03200
O2091       O  0.46492711  0.17498775  0.67077184    -0.79400
C2092       C  0.47903204  0.26248219  0.70155910     1.01500
Fe2093     Fe  0.10973679  0.88348754  0.53832624     1.65800
Fe2094     Fe  0.11248372  0.93648368  0.56151971     1.73200
Fe2095     Fe  0.16095137  0.93927889  0.52164161     1.54400
O2096       O  0.17453024  0.91650463  0.53675482    -0.83100
O2097       O  0.12319163  0.96538176  0.53127945    -0.81500
O2098       O  0.14056132  0.87934290  0.53685969    -0.85700
O2099       O  0.10970470  0.88606460  0.99316005    -0.80500
O2100       O  0.17671746  0.96171515  0.55843044    -0.82300
O2101       O  0.07855947  0.91701904  0.53963958    -0.85000
C2102       C  0.12666280  0.90042894  0.97503320     0.95700
C2103       C  0.16396152  0.89292693  0.53853599     1.03200
O2104       O  0.12796178  0.92001668  0.54047344    -1.14000
O2105       O  0.10073441  0.91030097  0.59538212    -0.76400
O2106       O  0.10958523  0.88051309  0.58345033    -0.79900
O2107       O  0.14756201  0.91881739  0.98298062    -0.80600
C2108       C  0.10385354  0.89204549  0.60221595     0.94600
O2109       O  0.07474869  0.87951470  0.53989240    -0.78600
O2110       O  0.14445229  0.95756526  0.58538851    -0.83800
C2111       C  0.13937849  0.97455227  0.51078237     0.97300
C2112       C  0.16764242  0.96650799  0.58105725     1.03200
O2113       O  0.15303205  0.96539747  0.50386089    -0.79400
C2114       C  0.06539787  0.89349505  0.53755593     1.01500
Fe2115     Fe  0.20856091  0.78452428  0.55129550     1.65800
Fe2116     Fe  0.26099203  0.78635027  0.52823101     1.73200
Fe2117     Fe  0.26437503  0.83576884  0.56637917     1.54400
O2118       O  0.24150080  0.84931083  0.55147247    -0.83100
O2119       O  0.29031930  0.79771763  0.55757374    -0.81500
O2120       O  0.20443574  0.81536854  0.55268750    -0.85700
O2121       O  0.21117319  0.78469859  0.59629439    -0.80500
O2122       O  0.28599928  0.85079650  0.52859528    -0.82300
O2123       O  0.24165416  0.75294590  0.55184566    -0.85000
C2124       C  0.22565591  0.80176473  0.61403392     0.95700
C2125       C  0.21794815  0.83878710  0.55068570     1.03200
O2126       O  0.24494981  0.80247337  0.54875502    -1.14000
O2127       O  0.23473184  0.77413821  0.99472980    -0.76400
O2128       O  0.20595947  0.78455816  0.50626925    -0.79900
O2129       O  0.24421333  0.82257569  0.60566007    -0.80600
C2130       C  0.21723400  0.77824581  0.98760797     0.94600
O2131       O  0.20435275  0.74935067  0.55024075    -0.78600
O2132       O  0.28150813  0.81781693  0.50293878    -0.83800
C2133       C  0.29986457  0.81444437  0.57726170     0.97300
C2134       C  0.29021421  0.84112655  0.50610161     1.03200
O2135       O  0.29086450  0.82831007  0.58379968    -0.79400
C2136       C  0.21811903  0.73988584  0.55387242     1.01500
Fe2137     Fe  0.21017272  0.78708314  0.80137377     1.65800
Fe2138     Fe  0.15986929  0.73100134  0.81799122     1.73200
Fe2139     Fe  0.20851745  0.73507525  0.77774105     1.54400
O2140       O  0.22033924  0.76191094  0.74456472    -0.83100
O2141       O  0.16905897  0.70614307  0.83650932    -0.81500
O2142       O  0.20883010  0.78982439  0.75641889    -0.85700
O2143       O  0.24557169  0.79193574  0.79793422    -0.80500
O2144       O  0.17694766  0.71446879  0.75317658    -0.82300
O2145       O  0.17296807  0.75232079  0.85624977    -0.85000
C2146       C  0.25503084  0.77817068  0.80189742     0.95700
C2147       C  0.21539405  0.77896048  0.73767965     1.03200
O2148       O  0.19255818  0.75072296  0.79902709    -1.14000
O2149       O  0.14548202  0.75269615  0.80190492    -0.76400
O2150       O  0.17877843  0.79015866  0.80516892    -0.79900
O2151       O  0.24191232  0.75457822  0.80073063    -0.80600
C2152       C  0.15547823  0.77623256  0.80242544     0.94600
O2153       O  0.21145511  0.78413336  0.84619793    -0.78600
O2154       O  0.14452811  0.70787119  0.78163403    -0.83800
C2155       C  0.18225920  0.69674089  0.82858568     0.97300
C2156       C  0.15371602  0.70436075  0.75818804     1.03200
O2157       O  0.19760278  0.70554145  0.80718029    -0.79400
C2158       C  0.19427252  0.77007869  0.86424591     1.01500
Fe2159     Fe  0.11163668  0.88391720  0.78801375     1.65800
Fe2160     Fe  0.05508829  0.83327712  0.77341330     1.73200
Fe2161     Fe  0.06000427  0.88353732  0.81121646     1.54400
O2162       O  0.08640626  0.89544254  0.84447991    -0.83100
O2163       O  0.02958622  0.84183845  0.75552982    -0.81500
O2164       O  0.11477593  0.88448142  0.83304311    -0.85700
O2165       O  0.11690703  0.91945436  0.78853149    -0.80500
O2166       O  0.03869726  0.85239751  0.83670143    -0.82300
O2167       O  0.07533901  0.84563639  0.73392791    -0.85000
C2168       C  0.10347254  0.92928139  0.78501292     0.95700
C2169       C  0.10374352  0.89105501  0.85152989     1.03200
O2170       O  0.07527507  0.86661321  0.79089252    -1.14000
O2171       O  0.07711891  0.81894413  0.78888555    -0.76400
O2172       O  0.11452317  0.85247454  0.78730818    -0.79900
O2173       O  0.07995821  0.91666190  0.78738401    -0.80600
C2174       C  0.10063377  0.82917542  0.79012518     0.94600
O2175       O  0.10856447  0.88343626  0.74309094    -0.78600
O2176       O  0.03298814  0.81890072  0.81122388    -0.83800
C2177       C  0.02123317  0.85627090  0.76193540     0.97300
C2178       C  0.02911633  0.82896826  0.83362933     1.03200
O2179       O  0.03099446  0.87287415  0.78171323    -0.79400
C2180       C  0.09373441  0.86651885  0.72546501     1.01500
Fe2181     Fe  0.89542822  0.45118910  0.63605147     1.65800
Fe2182     Fe  0.89000511  0.50199403  0.65187992     1.73200
Fe2183     Fe  0.84422581  0.45227426  0.61383482     1.54400
O2184       O  0.85823400  0.44025183  0.58013642    -0.83100
O2185       O  0.85596529  0.49383122  0.66969258    -0.81500
O2186       O  0.89745638  0.45063695  0.59088391    -0.85700
O2187       O  0.86478148  0.41582195  0.63578599    -0.80500
O2188       O  0.85446379  0.48382764  0.58887802    -0.82300
O2189       O  0.89740288  0.48899015  0.69093447    -0.85000
C2190       C  0.84148018  0.40605427  0.63910246     0.95700
C2191       C  0.87969081  0.44406953  0.57268193     1.03200
O2192       O  0.87655017  0.46874581  0.63398906    -1.14000
O2193       O  0.92659406  0.51620773  0.63711653    -0.76400
O2194       O  0.93004589  0.48242478  0.63653014    -0.79900
O2195       O  0.83069830  0.41879654  0.63696124    -0.80600
C2196       C  0.93976095  0.50585976  0.63537673     0.94600
O2197       O  0.89375906  0.45167249  0.68119593    -0.78600
O2198       O  0.88296909  0.51697495  0.61419256    -0.83800
C2199       C  0.83311889  0.47942996  0.66365260     0.97300
C2200       C  0.86889156  0.50719794  0.59186180     1.03200
O2201       O  0.82609312  0.46280639  0.64389254    -0.79400
C2202       C  0.89603771  0.46853636  0.69911179     1.01500
Fe2203     Fe  0.09255194  0.55026987  0.62521677     1.65800
Fe2204     Fe  0.09780568  0.60654244  0.60959904     1.73200
Fe2205     Fe  0.14346656  0.60275838  0.64828158     1.54400
O2206       O  0.12845593  0.57712791  0.68259684    -0.83100
O2207       O  0.13207919  0.63276890  0.59241362    -0.81500
O2208       O  0.08994165  0.54714526  0.67034047    -0.85700
O2209       O  0.12302200  0.54538968  0.62587057    -0.80500
O2210       O  0.13352776  0.62473239  0.67204207    -0.82300
O2211       O  0.09093998  0.58669311  0.57042884    -0.85000
C2212       C  0.14639729  0.55895989  0.62358477     0.95700
C2213       C  0.10695289  0.55898665  0.68925026     1.03200
O2214       O  0.11130757  0.58677497  0.62768734    -1.14000
O2215       O  0.06117458  0.58385600  0.62415735    -0.76400
O2216       O  0.05788264  0.54669321  0.62425571    -0.79900
O2217       O  0.15721343  0.58244144  0.62658451    -0.80600
C2218       C  0.04807487  0.56028368  0.62563571     0.94600
O2219       O  0.09507879  0.55324915  0.58013622    -0.78600
O2220       O  0.10418266  0.62812717  0.64700739    -0.83800
C2221       C  0.15497030  0.64083191  0.59786591     0.97300
C2222       C  0.11868464  0.63311774  0.66895552     1.03200
O2223       O  0.16203366  0.63096849  0.61738970    -0.79400
C2224       C  0.09307979  0.56811273  0.56227670     1.01500
Fe2225     Fe  0.78056064  0.57179890  0.95502087     1.65800
Fe2226     Fe  0.83047479  0.56523255  0.93940238     1.73200
Fe2227     Fe  0.78090061  0.52076253  0.97929935     1.54400
O2228       O  0.76937125  0.53642334  0.51227441    -0.83100
O2229       O  0.82095489  0.53075434  0.92161323    -0.81500
O2230       O  0.78158198  0.57584284  0.99988212    -0.85700
O2231       O  0.74483400  0.54185593  0.95807994    -0.80500
O2232       O  0.81197633  0.53093626  0.50443448    -0.82300
O2233       O  0.81764635  0.57323636  0.90037841    -0.85000
C2234       C  0.73492412  0.51860867  0.95416291     0.95700
C2235       C  0.77466344  0.55858824  0.51877272     1.03200
O2236       O  0.79763862  0.55256660  0.95797178    -1.14000
O2237       O  0.84536064  0.60186239  0.95478586    -0.76400
O2238       O  0.81212821  0.60598020  0.95154566    -0.79900
O2239       O  0.74748633  0.50761883  0.95623130    -0.80600
C2240       C  0.83535946  0.61541780  0.95458501     0.94600
O2241       O  0.77962581  0.56771320  0.91026624    -0.78600
O2242       O  0.84530583  0.55734664  0.97655603    -0.83800
C2243       C  0.80664478  0.50802921  0.92886281     0.97300
C2244       C  0.83569576  0.54387798  0.99954867     1.03200
O2245       O  0.79081372  0.50162934  0.94969838    -0.79400
C2246       C  0.79655550  0.57025498  0.89224599     1.01500
Fe2247     Fe  0.87600637  0.76677997  0.97110007     1.65800
Fe2248     Fe  0.93270697  0.77356248  0.98619257     1.73200
Fe2249     Fe  0.92741253  0.81817661  0.94704407     1.54400
O2250       O  0.90049120  0.80347111  0.91436939    -0.83100
O2251       O  0.95726545  0.80749253  0.50558478    -0.81500
O2252       O  0.87272826  0.76390030  0.92606157    -0.85700
O2253       O  0.87069905  0.79716253  0.97000556    -0.80500
O2254       O  0.94828849  0.80800675  0.92142069    -0.82300
O2255       O  0.91172714  0.76465031  0.52597542    -0.85000
C2256       C  0.88423981  0.82051128  0.97333410     0.95700
C2257       C  0.88330410  0.78161104  0.90745363     1.03200
O2258       O  0.91232867  0.78617790  0.96808661    -1.14000
O2259       O  0.91135743  0.73724091  0.97032008    -0.76400
O2260       O  0.87362465  0.73246329  0.97238529    -0.79900
O2261       O  0.90775752  0.83141084  0.97095308    -0.80600
C2262       C  0.88786802  0.72347118  0.96937981     0.94600
O2263       O  0.87875280  0.76929499  0.51618596    -0.78600
O2264       O  0.95540573  0.78198153  0.94888052    -0.83800
C2265       C  0.96602602  0.83041012  0.99697202     0.97300
C2266       C  0.95863324  0.79498081  0.92563097     1.03200
O2267       O  0.95686374  0.83687613  0.97600251    -0.79400
C2268       C  0.89315746  0.76682639  0.53417875     1.01500
Fe2269     Fe  0.87659018  0.76647056  0.72156207     1.65800
Fe2270     Fe  0.87504042  0.81704633  0.69772270     1.73200
Fe2271     Fe  0.82567112  0.77137020  0.73668394     1.54400
O2272       O  0.81199552  0.73544431  0.72038958    -0.83100
O2273       O  0.86449664  0.83521255  0.72796704    -0.81500
O2274       O  0.84552763  0.73190054  0.72443653    -0.85700
O2275       O  0.87690452  0.77018010  0.76638311    -0.80500
O2276       O  0.81068749  0.77914190  0.69978486    -0.82300
O2277       O  0.90863295  0.83080802  0.72037227    -0.85000
C2278       C  0.85953000  0.76692795  0.78410461     0.95700
C2279       C  0.82235464  0.72226301  0.72069175     1.03200
O2280       O  0.85882076  0.78501670  0.71858588    -1.14000
O2281       O  0.88636886  0.80206966  0.66410205    -0.76400
O2282       O  0.87633215  0.76299626  0.67656378    -0.79900
O2283       O  0.83825415  0.76316159  0.77563977    -0.80600
C2284       C  0.88241193  0.78032263  0.65759692     0.94600
O2285       O  0.91185962  0.79688644  0.71904486    -0.78600
O2286       O  0.84353486  0.80693275  0.67319084    -0.83800
C2287       C  0.84824878  0.82809482  0.74842205     0.97300
C2288       C  0.82023340  0.79303839  0.67715071     1.03200
O2289       O  0.83416270  0.80520747  0.75501884    -0.79400
C2290       C  0.92152293  0.82017181  0.72216092     1.01500
Fe2291     Fe  0.77997539  0.57057042  0.70523769     1.65800
Fe2292     Fe  0.72712388  0.52003852  0.72866411     1.73200
Fe2293     Fe  0.72415422  0.56545511  0.68829286     1.54400
O2294       O  0.74614443  0.60155000  0.70394408    -0.83100
O2295       O  0.69811905  0.50182605  0.69869128    -0.81500
O2296       O  0.78345664  0.60522318  0.70390595    -0.85700
O2297       O  0.77805538  0.56845274  0.66018200    -0.80500
O2298       O  0.70112625  0.55816873  0.72486403    -0.82300
O2299       O  0.74675820  0.50574687  0.70651163    -0.85000
C2300       C  0.76407389  0.57138001  0.64199054     0.95700
C2301       C  0.76962116  0.61473563  0.70574566     1.03200
O2302       O  0.74349538  0.55196929  0.70733108    -1.14000
O2303       O  0.75317144  0.53440778  0.76244568    -0.76400
O2304       O  0.78275978  0.57320108  0.75030386    -0.79900
O2305       O  0.74539013  0.57346114  0.64982191    -0.80600
C2306       C  0.77128772  0.55585560  0.76912451     0.94600
O2307       O  0.78414592  0.53964142  0.70654795    -0.78600
O2308       O  0.70628225  0.53112620  0.75280973    -0.83800
C2309       C  0.68930313  0.50872813  0.67769826     0.97300
C2310       C  0.69693592  0.54497696  0.74809803     1.03200
O2311       O  0.69879312  0.53149318  0.67011048    -0.79400
C2312       C  0.77028211  0.51627196  0.70413698     1.01500
Fe2313     Fe  0.54498927  0.45534952  0.88474197     1.65800
Fe2314     Fe  0.59676745  0.45619756  0.86147031     1.73200
Fe2315     Fe  0.60134502  0.50599510  0.90010300     1.54400
O2316       O  0.57914879  0.52041617  0.88536691    -0.83100
O2317       O  0.62621291  0.46714513  0.89068862    -0.81500
O2318       O  0.54192890  0.48667142  0.88599339    -0.85700
O2319       O  0.54782226  0.45544764  0.92971747    -0.80500
O2320       O  0.62317206  0.52077219  0.86221353    -0.82300
O2321       O  0.57702928  0.42289968  0.88527582    -0.85000
C2322       C  0.56251656  0.47211111  0.94770397     0.95700
C2323       C  0.55562848  0.51005996  0.88409443     1.03200
O2324       O  0.58134234  0.47282187  0.88212362    -1.14000
O2325       O  0.57011197  0.44399055  0.82831017    -0.76400
O2326       O  0.54189177  0.45511011  0.83963727    -0.79900
O2327       O  0.58113629  0.49299499  0.93958755    -0.80600
C2328       C  0.55265785  0.44820343  0.82116968     0.94600
O2329       O  0.53998138  0.41988785  0.88378276    -0.78600
O2330       O  0.61754844  0.48755942  0.83610008    -0.83800
C2331       C  0.63584960  0.48356873  0.91072424     0.97300
C2332       C  0.62688427  0.51094743  0.83945240     1.03200
O2333       O  0.62717108  0.49764889  0.91750301    -0.79400
C2334       C  0.55347598  0.41013220  0.88746463     1.01500
Fe2335     Fe  0.44530999  0.55117688  0.87288285     1.65800
Fe2336     Fe  0.44522807  0.60269990  0.89557788     1.73200
Fe2337     Fe  0.49534520  0.60791425  0.85686641     1.54400
O2338       O  0.51024068  0.58634750  0.87209549    -0.83100
O2339       O  0.45552841  0.63177911  0.86551167    -0.81500
O2340       O  0.47702629  0.54873307  0.87127987    -0.85700
O2341       O  0.44536529  0.55407857  0.82787210    -0.80500
O2342       O  0.50978404  0.63006213  0.89416402    -0.82300
O2343       O  0.41188936  0.58227613  0.87251387    -0.85000
C2344       C  0.46213541  0.56886270  0.80983654     0.95700
C2345       C  0.50034235  0.56282841  0.87307030     1.03200
O2346       O  0.46224748  0.58756378  0.87513731    -1.14000
O2347       O  0.43371776  0.57627260  0.92934649    -0.76400
O2348       O  0.44499213  0.54809687  0.91806591    -0.79900
O2349       O  0.48290169  0.58747386  0.81784475    -0.80600
C2350       C  0.43799203  0.55880715  0.93652191     0.94600
O2351       O  0.40967021  0.54552926  0.87414699    -0.78600
O2352       O  0.47650199  0.62424761  0.92036644    -0.83800
C2353       C  0.47196507  0.64145605  0.84531598     0.97300
C2354       C  0.49987046  0.63382117  0.91678700     1.03200
O2355       O  0.48638219  0.63310545  0.83893517    -0.79400
C2356       C  0.39949114  0.55866909  0.87064119     1.01500
Fe2357     Fe  0.56252593  0.78721125  0.55000070     1.65800
Fe2358     Fe  0.51106788  0.73465056  0.52939616     1.73200
Fe2359     Fe  0.55725215  0.73117625  0.56704133     1.54400
O2360       O  0.59357225  0.75332668  0.55127375    -0.83100
O2361       O  0.49330665  0.70599588  0.56001020    -0.81500
O2362       O  0.59715228  0.79060783  0.55071673    -0.85700
O2363       O  0.56067487  0.78527273  0.59510148    -0.80500
O2364       O  0.54962621  0.70873219  0.52995300    -0.82300
O2365       O  0.49813813  0.75489988  0.55274723    -0.85000
C2366       C  0.56282754  0.77075238  0.61336977     0.95700
C2367       C  0.60680814  0.77686639  0.54947551     1.03200
O2368       O  0.54363002  0.75071630  0.54880389    -1.14000
O2369       O  0.52451431  0.75996126  0.99445587    -0.76400
O2370       O  0.56425088  0.78922658  0.50484569    -0.79900
O2371       O  0.56501883  0.75206827  0.60567153    -0.80600
C2372       C  0.54601040  0.77761409  0.98683122     0.94600
O2373       O  0.53200479  0.79209420  0.54931026    -0.78600
O2374       O  0.52089119  0.71314034  0.50469593    -0.83800
C2375       C  0.50059001  0.69650346  0.57974600     0.97300
C2376       C  0.53526447  0.70419740  0.50786739     1.03200
O2377       O  0.52350255  0.70530764  0.58565722    -0.79400
C2378       C  0.50886933  0.77850664  0.55392888     1.01500
Fe2379     Fe  0.75944614  0.88532195  0.54096180     1.65800
Fe2380     Fe  0.80989009  0.88417759  0.56488486     1.73200
Fe2381     Fe  0.76499310  0.83467614  0.52604925     1.54400
O2382       O  0.72844511  0.82044539  0.54087023    -0.83100
O2383       O  0.82870176  0.87365548  0.53554357    -0.81500
O2384       O  0.72488062  0.85405804  0.53742150    -0.85700
O2385       O  0.76298590  0.88552568  0.99607986    -0.80500
O2386       O  0.77194569  0.81962438  0.56369814    -0.82300
O2387       O  0.82351319  0.91754203  0.54124166    -0.85000
C2388       C  0.76051469  0.86846809  0.97836581     0.95700
C2389       C  0.71516865  0.83070414  0.54032597     1.03200
O2390       O  0.77811906  0.86770734  0.54400114    -1.14000
O2391       O  0.79455637  0.89568499  0.59786962    -0.76400
O2392       O  0.75514624  0.88392697  0.58589934    -0.79900
O2393       O  0.75722984  0.84725707  0.98676300    -0.80600
C2394       C  0.77244556  0.89036390  0.60476285     0.94600
O2395       O  0.78981464  0.92097717  0.54400993    -0.78600
O2396       O  0.79944053  0.85267373  0.59000041    -0.83800
C2397       C  0.82192474  0.85733128  0.51537833     0.97300
C2398       C  0.78549389  0.82929523  0.58644261     1.03200
O2399       O  0.79918445  0.84320575  0.50866074    -0.79400
C2400       C  0.81297673  0.93055092  0.53958277     1.01500
Fe2401     Fe  0.87664837  0.11840838  0.71664886     1.65800
Fe2402     Fe  0.92955518  0.11999147  0.69488322     1.73200
Fe2403     Fe  0.93270293  0.16927140  0.73351717     1.54400
O2404       O  0.91036616  0.18347154  0.71858052    -0.83100
O2405       O  0.95712425  0.12942477  0.72635348    -0.81500
O2406       O  0.87329847  0.14959947  0.71620983    -0.85700
O2407       O  0.87827312  0.11881224  0.76180055    -0.80500
O2408       O  0.95503361  0.18490113  0.69633131    -0.82300
O2409       O  0.90852937  0.08544808  0.71605065    -0.85000
C2410       C  0.89286727  0.13528765  0.78000741     0.95700
C2411       C  0.88696322  0.17302989  0.71536112     1.03200
O2412       O  0.91320187  0.13607849  0.71507210    -1.14000
O2413       O  0.90486935  0.10972044  0.65987861    -0.76400
O2414       O  0.87435161  0.11761420  0.67154844    -0.79900
O2415       O  0.91201764  0.15585772  0.77233749    -0.80600
C2416       C  0.88651524  0.11254603  0.65296302     0.94600
O2417       O  0.87173955  0.08308404  0.71688539    -0.78600
O2418       O  0.95205198  0.15222940  0.67151954    -0.83800
C2419       C  0.96689232  0.14638578  0.74577933     0.97300
C2420       C  0.96036548  0.17548733  0.67449835     1.03200
O2421       O  0.95871540  0.16115310  0.75123016    -0.79400
C2422       C  0.88500833  0.07296247  0.71897174     1.01500
Fe2423     Fe  0.77748645  0.21592374  0.70632311     1.65800
Fe2424     Fe  0.77832865  0.26739149  0.73089545     1.73200
Fe2425     Fe  0.82828620  0.27248894  0.69237483     1.54400
O2426       O  0.84224681  0.24986549  0.70658771    -0.83100
O2427       O  0.78892649  0.29689574  0.70162863    -0.81500
O2428       O  0.80878173  0.21260719  0.70302588    -0.85700
O2429       O  0.77740583  0.22023456  0.66149293    -0.80500
O2430       O  0.84281386  0.29369572  0.73043375    -0.82300
O2431       O  0.74528061  0.24793754  0.70727060    -0.85000
C2432       C  0.79457627  0.23529454  0.64399078     0.95700
C2433       C  0.83211052  0.22633164  0.70555015     1.03200
O2434       O  0.79502843  0.25224824  0.70994214    -1.14000
O2435       O  0.76645470  0.24020495  0.76360521    -0.76400
O2436       O  0.77775846  0.21218042  0.75135183    -0.79900
O2437       O  0.81562658  0.25309538  0.65270667    -0.80600
C2438       C  0.77120662  0.22297109  0.77026934     0.94600
O2439       O  0.74190953  0.21070839  0.70886449    -0.78600
O2440       O  0.80951395  0.28827858  0.75623048    -0.83800
C2441       C  0.80558220  0.30674633  0.68174544     0.97300
C2442       C  0.83288917  0.29752391  0.75302010     1.03200
O2443       O  0.82010480  0.29850602  0.67551103    -0.79400
C2444       C  0.73235268  0.22440530  0.70523891     1.01500
Fe2445     Fe  0.11330428  0.23757746  0.53853064     1.65800
Fe2446     Fe  0.06106131  0.18643729  0.56132883     1.73200
Fe2447     Fe  0.05731658  0.23232938  0.52307068     1.54400
O2448       O  0.07939857  0.26827418  0.53930481    -0.83100
O2449       O  0.03214138  0.16855741  0.53148664    -0.81500
O2450       O  0.11680119  0.27234478  0.53665328    -0.85700
O2451       O  0.11073763  0.23726840  0.99326490    -0.80500
O2452       O  0.03475505  0.22455836  0.56027432    -0.82300
O2453       O  0.08096430  0.17296875  0.53788672    -0.85000
C2454       C  0.09580554  0.23875389  0.97518442     0.95700
C2455       C  0.10290087  0.28171564  0.53942900     1.03200
O2456       O  0.07691253  0.21873869  0.54096717    -1.14000
O2457       O  0.08732794  0.20059534  0.59476486    -0.76400
O2458       O  0.11591944  0.24009882  0.58363915    -0.79900
O2459       O  0.07665173  0.23996057  0.98316226    -0.80600
C2460       C  0.10477583  0.22224929  0.60200417     0.94600
O2461       O  0.11809045  0.20695401  0.53993378    -0.78600
O2462       O  0.03990279  0.19665181  0.58649292    -0.83800
C2463       C  0.02289114  0.17569642  0.51129483     0.97300
C2464       C  0.03060509  0.21070593  0.58291527     1.03200
O2465       O  0.03176591  0.19857673  0.50467203    -0.79400
C2466       C  0.10453889  0.18370450  0.53603101     1.01500
Fe2467     Fe  0.21046612  0.43323708  0.55443494     1.65800
Fe2468     Fe  0.20927979  0.48445564  0.53097133     1.73200
Fe2469     Fe  0.15976418  0.43896710  0.57015811     1.54400
O2470       O  0.14557943  0.40245874  0.55563200    -0.83100
O2471       O  0.19958121  0.50306677  0.56159845    -0.81500
O2472       O  0.17916965  0.39867717  0.55499234    -0.85700
O2473       O  0.20988579  0.43541356  0.59949210    -0.80500
O2474       O  0.14464078  0.44596786  0.53277043    -0.82300
O2475       O  0.24316663  0.49796365  0.55274961    -0.85000
C2476       C  0.19315703  0.43352385  0.61741716     0.95700
C2477       C  0.15584717  0.38926296  0.55333338     1.03200
O2478       O  0.19293419  0.45222223  0.55181231    -1.14000
O2479       O  0.22071196  0.46879969  0.99662864    -0.76400
O2480       O  0.21140531  0.43087872  0.50939209    -0.79900
O2481       O  0.17256698  0.43163780  0.60928122    -0.80600
C2482       C  0.21651158  0.44691707  0.99049092     0.94600
O2483       O  0.24584129  0.46365127  0.55380626    -0.78600
O2484       O  0.17754610  0.47475977  0.50708414    -0.83800
C2485       C  0.18285791  0.49604161  0.58144206     0.97300
C2486       C  0.15425292  0.46040147  0.51055047     1.03200
O2487       O  0.16819855  0.47315102  0.58743886    -0.79400
C2488       C  0.25571898  0.48706132  0.55577863     1.01500
Fe2489     Fe  0.89492108  0.45274135  0.88687829     1.65800
Fe2490     Fe  0.84520038  0.40068705  0.86160740     1.73200
Fe2491     Fe  0.89006283  0.39676729  0.90147763     1.54400
O2492       O  0.92638325  0.41954940  0.88623803    -0.83100
O2493       O  0.82631981  0.37168641  0.89152179    -0.81500
O2494       O  0.92963873  0.45651119  0.89108968    -0.85700
O2495       O  0.88969530  0.44838509  0.93156580    -0.80500
O2496       O  0.88327388  0.37440524  0.86455431    -0.82300
O2497       O  0.83079231  0.42029378  0.88374694    -0.85000
C2498       C  0.89290629  0.43411061  0.94912531     0.95700
C2499       C  0.93952530  0.44311106  0.88770206     1.03200
O2500       O  0.87668589  0.41639566  0.88319207    -1.14000
O2501       O  0.86118926  0.42736591  0.82837382    -0.76400
O2502       O  0.89973829  0.45660862  0.84200824    -0.79900
O2503       O  0.89722436  0.41698400  0.94054812    -0.80600
C2504       C  0.88307720  0.44528056  0.82253111     0.94600
O2505       O  0.86450323  0.45763106  0.88337402    -0.78600
O2506       O  0.85567695  0.37921844  0.83757278    -0.83800
C2507       C  0.83308179  0.36228018  0.91198359     0.97300
C2508       C  0.86948809  0.36978574  0.84194629     1.03200
O2509       O  0.85582220  0.37098593  0.91887723    -0.79400
C2510       C  0.84120779  0.44380297  0.88612469     1.01500
Fe2511     Fe  0.09203727  0.55233525  0.87582801     1.65800
Fe2512     Fe  0.14319537  0.55090701  0.89696136     1.73200
Fe2513     Fe  0.09687105  0.50136338  0.85958197     1.54400
O2514       O  0.06085557  0.48749973  0.87594127    -0.83100
O2515       O  0.16080829  0.54001746  0.86634264    -0.81500
O2516       O  0.05724266  0.52118775  0.87491275    -0.85700
O2517       O  0.09421718  0.55243455  0.83073601    -0.80500
O2518       O  0.10470916  0.48639804  0.89658875    -0.82300
O2519       O  0.15635454  0.58422311  0.87341263    -0.85000
C2520       C  0.09146445  0.53540402  0.81280817     0.95700
C2521       C  0.04765824  0.49781713  0.87730956     1.03200
O2522       O  0.11070430  0.53456239  0.87747217    -1.14000
O2523       O  0.12939570  0.56291036  0.93117810    -0.76400
O2524       O  0.08995817  0.55222870  0.92095530    -0.79900
O2525       O  0.08878439  0.51438300  0.82096447    -0.80600
C2526       C  0.10783941  0.55872122  0.93897448     0.94600
O2527       O  0.12270062  0.58777104  0.87672977    -0.78600
O2528       O  0.13333638  0.51943595  0.92195702    -0.83800
C2529       C  0.15340585  0.52339712  0.84647727     0.97300
C2530       C  0.11906429  0.49607214  0.91869999     1.03200
O2531       O  0.13045881  0.50934198  0.84061571    -0.79400
C2532       C  0.14580327  0.59722888  0.87202146     1.01500
Fe2533     Fe  0.75847767  0.88325624  0.79144976     1.65800
Fe2534     Fe  0.76404872  0.93921736  0.77392590     1.73200
Fe2535     Fe  0.80977524  0.93556259  0.81236415     1.54400
O2536       O  0.79564044  0.90969096  0.84669690    -0.83100
O2537       O  0.79788289  0.96440043  0.75478673    -0.81500
O2538       O  0.75598655  0.88143887  0.83664519    -0.85700
O2539       O  0.78883719  0.87823046  0.79342565    -0.80500
O2540       O  0.79979426  0.95705922  0.83675036    -0.82300
O2541       O  0.75550811  0.91762039  0.73576656    -0.85000
C2542       C  0.81203713  0.89157941  0.78907891     0.95700
C2543       C  0.77398846  0.89248940  0.85460397     1.03200
O2544       O  0.77746238  0.91966902  0.79252781    -1.14000
O2545       O  0.72793447  0.91749038  0.79032361    -0.76400
O2546       O  0.72406920  0.88009430  0.78929856    -0.79900
O2547       O  0.82286564  0.91520615  0.78961049    -0.80600
C2548       C  0.71455633  0.89392604  0.79096942     0.94600
O2549       O  0.76102407  0.88512185  0.74639494    -0.78600
O2550       O  0.77208483  0.96231758  0.81046704    -0.83800
C2551       C  0.82073867  0.97324964  0.76116159     0.97300
C2552       C  0.78587904  0.96645302  0.83301531     1.03200
O2553       O  0.82776505  0.96412085  0.78164284    -0.79400
C2554       C  0.75803122  0.89912171  0.72813756     1.01500
Fe2555     Fe  0.56171708  0.78588498  0.80033775     1.65800
Fe2556     Fe  0.55709789  0.83715542  0.81583221     1.73200
Fe2557     Fe  0.51090035  0.78795120  0.77758470     1.54400
O2558       O  0.52575645  0.77745172  0.74302075    -0.83100
O2559       O  0.52308986  0.82997229  0.83200088    -0.81500
O2560       O  0.56405743  0.78530414  0.75525479    -0.85700
O2561       O  0.53110545  0.75066955  0.79990579    -0.80500
O2562       O  0.52089625  0.82020573  0.75404213    -0.82300
O2563       O  0.56273422  0.82341176  0.85533827    -0.85000
C2564       C  0.50776034  0.74087316  0.80222783     0.95700
C2565       C  0.54704336  0.78028157  0.73638753     1.03200
O2566       O  0.54322640  0.80388328  0.79787483    -1.14000
O2567       O  0.59371024  0.85083492  0.80236384    -0.76400
O2568       O  0.59658887  0.81678723  0.80083702    -0.79900
O2569       O  0.49701416  0.75359420  0.79918420    -0.80600
C2570       C  0.60654516  0.84024467  0.80000375     0.94600
O2571       O  0.55929979  0.78618868  0.84548252    -0.78600
O2572       O  0.55167680  0.85271712  0.77793059    -0.83800
C2573       C  0.50008985  0.81529000  0.82726330     0.97300
C2574       C  0.53640728  0.84338250  0.75662716     1.03200
O2575       O  0.49247470  0.79760465  0.80874037    -0.79400
C2576       C  0.56064232  0.80263581  0.86344553     1.01500
Fe2577     Fe  0.54332396  0.10025773  0.63460095     1.65800
Fe2578     Fe  0.59918280  0.10574954  0.65091763     1.73200
Fe2579     Fe  0.59543094  0.15114527  0.61146323     1.54400
O2580       O  0.56920982  0.13640277  0.57779995    -0.83100
O2581       O  0.62394063  0.13962356  0.66957445    -0.81500
O2582       O  0.54073918  0.09700257  0.58952278    -0.85700
O2583       O  0.53819784  0.13056419  0.63196558    -0.80500
O2584       O  0.61683048  0.14091244  0.58696647    -0.82300
O2585       O  0.57775838  0.09711160  0.68938199    -0.85000
C2586       C  0.55169027  0.15380938  0.63571104     0.95700
C2587       C  0.55169952  0.11464788  0.57085495     1.03200
O2588       O  0.57964354  0.11908729  0.63226048    -1.14000
O2589       O  0.57758388  0.06969159  0.63470090    -0.76400
O2590       O  0.54031443  0.06587093  0.63747686    -0.79900
O2591       O  0.57527319  0.16457426  0.63427365    -0.80600
C2592       C  0.55405978  0.05633234  0.63473607     0.94600
O2593       O  0.54592720  0.10366846  0.67958308    -0.78600
O2594       O  0.62245204  0.11390074  0.61442621    -0.83800
C2595       C  0.63306098  0.16244464  0.66248566     0.97300
C2596       C  0.62655889  0.12735392  0.59144032     1.03200
O2597       O  0.62425952  0.16943398  0.64156906    -0.79400
C2598       C  0.55983289  0.10035060  0.69753524     1.01500
Fe2599     Fe  0.44480041  0.90468566  0.62249435     1.65800
Fe2600     Fe  0.49505180  0.89865147  0.60575022     1.73200
Fe2601     Fe  0.44547712  0.85343043  0.64505979     1.54400
O2602       O  0.43347393  0.86767737  0.67877293    -0.83100
O2603       O  0.48640086  0.86460515  0.58785634    -0.81500
O2604       O  0.44483791  0.90719192  0.66758385    -0.85700
O2605       O  0.40927895  0.87427881  0.62374677    -0.80500
O2606       O  0.47690269  0.86388431  0.66975353    -0.82300
O2607       O  0.48194601  0.90632874  0.56688518    -0.85000
C2608       C  0.39954640  0.85104571  0.61968296     0.95700
C2609       C  0.43794548  0.88941954  0.68604376     1.03200
O2610       O  0.46207567  0.88558320  0.62440357    -1.14000
O2611       O  0.50968135  0.93504030  0.62099396    -0.76400
O2612       O  0.47627130  0.93902851  0.62118005    -0.79900
O2613       O  0.41222211  0.84015237  0.62168173    -0.80600
C2614       C  0.49958936  0.94840704  0.62287386     0.94600
O2615       O  0.44461077  0.90226567  0.57747504    -0.78600
O2616       O  0.51001402  0.89116630  0.64296657    -0.83800
C2617       C  0.47247492  0.84186291  0.59506766     0.97300
C2618       C  0.50026293  0.87776150  0.66595777     1.03200
O2619       O  0.45627636  0.83510899  0.61547917    -0.79400
C2620       C  0.46107927  0.90409666  0.55916597     1.01500
Fe2621     Fe  0.87752824  0.11957715  0.96676543     1.65800
Fe2622     Fe  0.82721546  0.06352066  0.98305225     1.73200
Fe2623     Fe  0.87660076  0.06772315  0.94413151     1.54400
O2624       O  0.88807624  0.09425461  0.91044905    -0.83100
O2625       O  0.83687215  0.03929842  0.50173249    -0.81500
O2626       O  0.87617382  0.12196106  0.92185748    -0.85700
O2627       O  0.91300696  0.12495962  0.96349228    -0.80500
O2628       O  0.84518389  0.04639828  0.91943182    -0.82300
O2629       O  0.84150641  0.08578932  0.52142909    -0.85000
C2630       C  0.92279896  0.11161610  0.96809009     0.95700
C2631       C  0.88289708  0.11112135  0.90327572     1.03200
O2632       O  0.86014156  0.08323178  0.96465161    -1.14000
O2633       O  0.81296523  0.08537588  0.96683028    -0.76400
O2634       O  0.84632665  0.12266613  0.97029557    -0.79900
O2635       O  0.90998643  0.08797100  0.96725694    -0.80600
C2636       C  0.82309789  0.10892348  0.96725657     0.94600
O2637       O  0.88001756  0.11774072  0.51159228    -0.78600
O2638       O  0.81230644  0.04079235  0.94631406    -0.83800
C2639       C  0.84978560  0.02939150  0.99488963     0.97300
C2640       C  0.82187294  0.03684603  0.92350595     1.03200
O2641       O  0.86590960  0.03855128  0.97426192    -0.79400
C2642       C  0.86279486  0.10360341  0.52960306     1.01500
Fe2643     Fe  0.77938516  0.21769078  0.95677001     1.65800
Fe2644     Fe  0.72338701  0.16643605  0.94148383     1.73200
Fe2645     Fe  0.72689668  0.21617712  0.97916960     1.54400
O2646       O  0.75314045  0.22903204  0.51288202    -0.83100
O2647       O  0.69724651  0.17398072  0.92377734    -0.81500
O2648       O  0.78238665  0.21895464  0.00196315    -0.85700
O2649       O  0.78371569  0.25286771  0.95663646    -0.80500
O2650       O  0.70627909  0.18497910  0.50410874    -0.82300
O2651       O  0.74350790  0.17916476  0.90222418    -0.85000
C2652       C  0.77000207  0.26242055  0.95332478     0.95700
C2653       C  0.77127867  0.22605378  0.52035032     1.03200
O2654       O  0.74296813  0.19983390  0.95914195    -1.14000
O2655       O  0.74581836  0.15261024  0.95634093    -0.76400
O2656       O  0.78294856  0.18653556  0.95666188    -0.79900
O2657       O  0.74647399  0.24948941  0.95552702    -0.80600
C2658       C  0.76929113  0.16308787  0.95800784     0.94600
O2659       O  0.77682957  0.21680945  0.91165077    -0.78600
O2660       O  0.70165106  0.15169978  0.97918969    -0.83800
C2661       C  0.68828731  0.18790777  0.92991916     0.97300
C2662       C  0.69730952  0.16148107  0.00146777     1.03200
O2663       O  0.69777588  0.20479127  0.94944117    -0.79400
C2664       C  0.76218664  0.19985256  0.89390446     1.01500
C2665       C  0.82069266  0.14782052  0.96693471    -0.14800
C2666       C  0.80822143  0.12166144  0.96466985     0.07300
C2667       C  0.78220743  0.10872910  0.96060494    -0.14800
C2668       C  0.76912851  0.12189308  0.95882282    -0.14800
C2669       C  0.78190201  0.14813428  0.96113920     0.07300
C2670       C  0.80781120  0.16076412  0.96526323    -0.14800
H2671       H  0.84065949  0.15857498  0.97013543     0.11300
H2672       H  0.77205157  0.08859291  0.95876314     0.11300
H2673       H  0.74918195  0.11162554  0.95538254     0.11300
H2674       H  0.81840000  0.18090172  0.96711250     0.11300
C2675       C  0.63708619  0.12360380  0.53955611    -0.14800
C2676       C  0.64440792  0.12871357  0.56921184     0.07300
C2677       C  0.66978092  0.14042618  0.57638535    -0.14800
C2678       C  0.68773943  0.14920986  0.55391609    -0.14800
C2679       C  0.68040025  0.14560855  0.52417346     0.07300
C2680       C  0.65502622  0.13167402  0.51714129    -0.14800
H2681       H  0.61757120  0.11497876  0.53368458     0.11300
H2682       H  0.67572014  0.14496791  0.59915327     0.11300
H2683       H  0.70724952  0.16041698  0.55964425     0.11300
H2684       H  0.64855314  0.12851478  0.99466468     0.11300
C2685       C  0.51514586  0.01521965  0.63199774    -0.14800
C2686       C  0.54132591  0.02870656  0.63183005     0.07300
C2687       C  0.55421981  0.01540926  0.62946024    -0.14800
C2688       C  0.54097576  0.98915806  0.62695386    -0.14800
C2689       C  0.51469990  0.97592763  0.62681871     0.07300
C2690       C  0.50213683  0.98942758  0.62962168    -0.14800
H2691       H  0.50440163  0.02456986  0.63393230     0.11300
H2692       H  0.57438617  0.02523068  0.62946570     0.11300
H2693       H  0.55121551  0.97930543  0.62487381     0.11300
H2694       H  0.48198008  0.98010433  0.62975960     0.11300
C2695       C  0.51914319  0.86968559  0.74155853    -0.14800
C2696       C  0.53462376  0.85992412  0.73485663     0.07300
C2697       C  0.54266873  0.86077341  0.70563212    -0.14800
C2698       C  0.53377323  0.86971446  0.68298074    -0.14800
C2699       C  0.51620489  0.87703877  0.68942269     0.07300
C2700       C  0.50980447  0.87799342  0.71895886    -0.14800
H2701       H  0.51233754  0.86860856  0.76392571     0.11300
H2702       H  0.55419147  0.85279082  0.70010763     0.11300
H2703       H  0.53858622  0.86847161  0.66024618     0.11300
H2704       H  0.49607616  0.88332483  0.72427207     0.11300
C2705       C  0.79806009  0.00924252  0.84897546    -0.14800
C2706       C  0.78719837  0.98378251  0.85582565     0.07300
C2707       C  0.78363928  0.97606342  0.88551090    -0.14800
C2708       C  0.79249753  0.99371574  0.90809852    -0.14800
C2709       C  0.80559421  0.01922240  0.90114210     0.07300
C2710       C  0.80759919  0.02694455  0.87156301    -0.14800
H2711       H  0.80145483  0.01550446  0.82615236     0.11300
H2712       H  0.77574776  0.95649088  0.89109484     0.11300
H2713       H  0.79131680  0.98749779  0.93077979     0.11300
H2714       H  0.81807863  0.04659656  0.86588268     0.11300
C2715       C  0.67301996  0.85534085  0.78875941    -0.14800
C2716       C  0.68690681  0.88130455  0.79302649     0.07300
C2717       C  0.67400028  0.89422561  0.79855825    -0.14800
C2718       C  0.64776121  0.88119641  0.80034405    -0.14800
C2719       C  0.63409830  0.85509904  0.79652209     0.07300
C2720       C  0.64716507  0.84251872  0.79042019    -0.14800
H2721       H  0.68211557  0.84467827  0.78404114     0.11300
H2722       H  0.68413213  0.91423304  0.80178146     0.11300
H2723       H  0.63823892  0.89143155  0.80512855     0.11300
H2724       H  0.63741877  0.82251486  0.78709373     0.11300
C2725       C  0.98093529  0.48220294  0.88905081    -0.14800
C2726       C  0.96725496  0.45612083  0.88571670     0.07300
C2727       C  0.98042708  0.44337195  0.88075450    -0.14800
C2728       C  0.00665700  0.45660451  0.87864173    -0.14800
C2729       C  0.02011998  0.48279143  0.88143211     0.07300
C2730       C  0.00681784  0.49525817  0.88695937    -0.14800
H2731       H  0.97164812  0.49277909  0.89316192     0.11300
H2732       H  0.97049071  0.42328639  0.87823135     0.11300
H2733       H  0.01632621  0.44643463  0.87431176     0.11300
H2734       H  0.01640052  0.51534518  0.88945272     0.11300
C2735       C  0.82154492  0.32925693  0.95045333    -0.14800
C2736       C  0.81415826  0.33903084  0.92704458     0.07300
C2737       C  0.78989669  0.32445809  0.91555853    -0.14800
C2738       C  0.77429781  0.29985068  0.92560087    -0.14800
C2739       C  0.78287366  0.28952875  0.94705461     0.07300
C2740       C  0.80617594  0.30482025  0.96018493    -0.14800
H2741       H  0.83991064  0.33995431  0.96011765     0.11300
H2742       H  0.78360779  0.33143238  0.89752483     0.11300
H2743       H  0.75639685  0.28840176  0.91514208     0.11300
H2744       H  0.81308060  0.29740693  0.97707814     0.11300
C2745       C  0.12449732  0.47311438  0.99350033    -0.14800
C2746       C  0.13850736  0.46172156  0.98647024     0.07300
C2747       C  0.14177511  0.45761533  0.95670536    -0.14800
C2748       C  0.13262490  0.46636966  0.93421635    -0.14800
C2749       C  0.12073242  0.47989444  0.94127498     0.07300
C2750       C  0.11598662  0.48251956  0.97100958    -0.14800
H2751       H  0.12333362  0.47877744  0.51798576     0.11300
H2752       H  0.15287609  0.44924728  0.95091725     0.11300
H2753       H  0.13695201  0.46468666  0.91138766     0.11300
H2754       H  0.10729472  0.49335128  0.97681242     0.11300
C2755       C  0.10291483  0.32137528  0.55381811    -0.14800
C2756       C  0.11519355  0.30929456  0.54222363     0.07300
C2757       C  0.14014940  0.32390099  0.53316339    -0.14800
C2758       C  0.15275087  0.34972333  0.53616524    -0.14800
C2759       C  0.14089234  0.36191932  0.54838108     0.07300
C2760       C  0.11570094  0.34754520  0.55690127    -0.14800
H2761       H  0.08369818  0.31060387  0.56102322     0.11300
H2762       H  0.15011473  0.31535662  0.52370327     0.11300
H2763       H  0.17202081  0.36017719  0.52903364     0.11300
H2764       H  0.10614640  0.35642376  0.56658491     0.11300
C2765       C  0.98928125  0.16428426  0.97177748    -0.14800
C2766       C  0.99970889  0.15695996  0.49625479     0.07300
C2767       C  0.98477902  0.13279608  0.50819895    -0.14800
C2768       C  0.96005470  0.11659247  0.99638913    -0.14800
C2769       C  0.94985390  0.12501364  0.97461967     0.07300
C2770       C  0.96506552  0.14863218  0.96170808    -0.14800
H2771       H  0.99993627  0.18280870  0.96224091     0.11300
H2772       H  0.99126311  0.12659349  0.52681614     0.11300
H2773       H  0.94867264  0.09857183  0.00686805     0.11300
H2774       H  0.95775789  0.15552241  0.94467725     0.11300
C2775       C  0.68950432  0.18848514  0.71183300    -0.14800
C2776       C  0.70537443  0.21171943  0.69854706     0.07300
C2777       C  0.69577654  0.22055401  0.67649128    -0.14800
C2778       C  0.67133844  0.20531146  0.66610934    -0.14800
C2779       C  0.65612970  0.18112462  0.67785285     0.07300
C2780       C  0.66516983  0.17347693  0.70180365    -0.14800
H2781       H  0.69635841  0.18137232  0.72914197     0.11300
H2782       H  0.70768269  0.23838408  0.66585186     0.11300
H2783       H  0.66499354  0.21179833  0.64762984     0.11300
H2784       H  0.65397782  0.15515784  0.71167156     0.11300
C2785       C  0.84329241  0.30770030  0.80599025    -0.14800
C2786       C  0.84879010  0.31467523  0.77617067     0.07300
C2787       C  0.86549152  0.33971732  0.76890557    -0.14800
C2788       C  0.87443693  0.35792754  0.79098829    -0.14800
C2789       C  0.86744250  0.35111383  0.82056536     0.07300
C2790       C  0.85283121  0.32579144  0.82811197    -0.14800
H2791       H  0.83021249  0.28848166  0.81196708     0.11300
H2792       H  0.86956123  0.34548926  0.74599488     0.11300
H2793       H  0.88531810  0.37747603  0.78476640     0.11300
H2794       H  0.84682196  0.32028440  0.85074796     0.11300
C2795       C  0.75886941  0.22000990  0.57284715    -0.14800
C2796       C  0.77799348  0.22888031  0.55168593     0.07300
C2797       C  0.80286256  0.23960156  0.56083621    -0.14800
C2798       C  0.80851410  0.24177991  0.59099797    -0.14800
C2799       C  0.78924763  0.23252898  0.61215162     0.07300
C2800       C  0.76441847  0.22157799  0.60275790    -0.14800
H2801       H  0.73955410  0.21148486  0.56620538     0.11300
H2802       H  0.81785331  0.24659413  0.54470605     0.11300
H2803       H  0.82779452  0.25046755  0.59776647     0.11300
H2804       H  0.74920916  0.21462348  0.61860324     0.11300
C2805       C  0.77780256  0.23544900  0.82254200    -0.14800
C2806       C  0.76981575  0.21635139  0.80158573     0.07300
C2807       C  0.76066427  0.19163144  0.81097074    -0.14800
C2808       C  0.75849470  0.18602231  0.84121116    -0.14800
C2809       C  0.76626427  0.20523081  0.86213137     0.07300
C2810       C  0.77634548  0.23000009  0.85249585    -0.14800
H2811       H  0.78513213  0.25468946  0.81570159     0.11300
H2812       H  0.75449247  0.17668582  0.79501334     0.11300
H2813       H  0.75062177  0.16677496  0.84825591     0.11300
H2814       H  0.78221853  0.24511349  0.86817055     0.11300
C2815       C  0.88023913  0.03483520  0.74562822    -0.14800
C2816       C  0.87156616  0.04572642  0.72504817     0.07300
C2817       C  0.84765730  0.03100055  0.71300839    -0.14800
C2818       C  0.83193926  0.00665741  0.72300968    -0.14800
C2819       C  0.83958724  0.99636892  0.74559316     0.07300
C2820       C  0.86432924  0.01034679  0.75591051    -0.14800
H2821       H  0.89855713  0.04579404  0.75530598     0.11300
H2822       H  0.84059418  0.03882602  0.69682732     0.11300
H2823       H  0.81319700  0.99647681  0.71425858     0.11300
H2824       H  0.87087569  0.00300670  0.77327698     0.11300
C2825       C  0.84851305  0.17509741  0.70526647    -0.14800
C2826       C  0.87426669  0.18786626  0.71094819     0.07300
C2827       C  0.88664151  0.21404427  0.71371071    -0.14800
C2828       C  0.87326102  0.22691235  0.71171572    -0.14800
C2829       C  0.84729708  0.21378603  0.70701186     0.07300
C2830       C  0.83531369  0.18777208  0.70339601    -0.14800
H2831       H  0.83823985  0.15501770  0.70267209     0.11300
H2832       H  0.90647196  0.22447209  0.71798134     0.11300
H2833       H  0.88312510  0.24699215  0.71427154     0.11300
H2834       H  0.81546781  0.17693664  0.69931050     0.11300
C2835       C  0.89452712  0.14816638  0.83269851    -0.14800
C2836       C  0.88821052  0.12937652  0.81157574     0.07300
C2837       C  0.87920679  0.10466407  0.82085068    -0.14800
C2838       C  0.87757366  0.09892802  0.85076728    -0.14800
C2839       C  0.88433997  0.11769873  0.87193932     0.07300
C2840       C  0.89219039  0.14225425  0.86282588    -0.14800
H2841       H  0.90144943  0.16732651  0.82589321     0.11300
H2842       H  0.87439461  0.08989697  0.80491661     0.11300
H2843       H  0.87105145  0.07978580  0.85738978     0.11300
H2844       H  0.89726815  0.15692598  0.87895025     0.11300
C2845       C  0.85492470  0.09823771  0.61271141    -0.14800
C2846       C  0.87988143  0.11074550  0.62172588     0.07300
C2847       C  0.89894156  0.12207784  0.60062357    -0.14800
C2848       C  0.89319279  0.12068217  0.57076222    -0.14800
C2849       C  0.86827559  0.10738195  0.56141211     0.07300
C2850       C  0.84913062  0.09625362  0.58264347    -0.14800
H2851       H  0.84000054  0.08945123  0.62886167     0.11300
H2852       H  0.91828370  0.13205034  0.60727933     0.11300
H2853       H  0.90838028  0.12934919  0.55493795     0.11300
H2854       H  0.82980573  0.08586547  0.57601437     0.11300
C2855       C  0.97003728  0.18852737  0.62206696    -0.14800
C2856       C  0.97777970  0.19181031  0.65165255     0.07300
C2857       C  0.00325507  0.20588884  0.65818466    -0.14800
C2858       C  0.02088072  0.21433776  0.63531912    -0.14800
C2859       C  0.01313328  0.20936656  0.60575675     0.07300
C2860       C  0.98764317  0.19755788  0.59920555    -0.14800
H2861       H  0.95045545  0.17738043  0.61669391     0.11300
H2862       H  0.00954211  0.20815355  0.68088914     0.11300
H2863       H  0.04049689  0.22309811  0.64072941     0.11300
H2864       H  0.98134441  0.19313266  0.57654280     0.11300
C2865       C  0.84470241  0.96635646  0.00955338    -0.14800
C2866       C  0.82717462  0.95758806  0.53227073     0.07300
C2867       C  0.81970666  0.97348771  0.54501413    -0.14800
C2868       C  0.82900569  0.99780489  0.53447521    -0.14800
C2869       C  0.84581624  0.00687181  0.51056364     0.07300
C2870       C  0.85383864  0.99075708  0.99863915    -0.14800
H2871       H  0.85029901  0.95427007  0.99888031     0.11300
H2872       H  0.80573410  0.96668786  0.56233577     0.11300
H2873       H  0.82184388  0.00901308  0.54403240     0.11300
H2874       H  0.86629696  0.99689659  0.97978206     0.11300
C2875       C  0.74936446  0.85558621  0.92562854    -0.14800
C2876       C  0.76280657  0.87417836  0.94663228     0.07300
C2877       C  0.77969470  0.89855072  0.93716690    -0.14800
C2878       C  0.78340107  0.90423626  0.90718563    -0.14800
C2879       C  0.76990363  0.88579361  0.88609174     0.07300
C2880       C  0.75260671  0.86147085  0.89546134    -0.14800
H2881       H  0.73629404  0.83665209  0.93256547     0.11300
H2882       H  0.79048872  0.91311083  0.95298528     0.11300
H2883       H  0.79667776  0.92320062  0.90047713     0.14900
H2884       H  0.74200253  0.84699136  0.87948356     0.11300
C2885       C  0.77981026  0.88536867  0.65726050    -0.14800
C2886       C  0.76703401  0.89128391  0.63613231     0.07300
C2887       C  0.74947268  0.89788252  0.64537491    -0.14800
C2888       C  0.74589337  0.89995357  0.67555159    -0.14800
C2889       C  0.75924015  0.89461392  0.69657699     0.07300
C2890       C  0.77575341  0.88675161  0.68718986    -0.14800
H2891       H  0.79311008  0.87977320  0.65060082     0.11300
H2892       H  0.73924154  0.90223909  0.62934094     0.11300
H2893       H  0.73298174  0.90595467  0.68246700     0.11300
H2894       H  0.78635926  0.88269167  0.70301314     0.11300
C2895       C  0.50183301  0.81422223  0.54625200    -0.14800
C2896       C  0.49489530  0.79150114  0.56066575     0.07300
C2897       C  0.47737963  0.78363819  0.58374318    -0.14800
C2898       C  0.46848454  0.79925422  0.59368974    -0.14800
C2899       C  0.47689729  0.82288202  0.58056696     0.07300
C2900       C  0.49287558  0.82965664  0.55596117    -0.14800
H2901       H  0.51516877  0.82060378  0.52822399     0.11300
H2902       H  0.47192543  0.76630072  0.59536447     0.11300
H2903       H  0.45632128  0.79352833  0.61282108     0.11300
H2904       H  0.49960479  0.84757217  0.54516312     0.11300
C2905       C  0.67388970  0.78949639  0.54199219    -0.14800
C2906       C  0.68745894  0.81579994  0.54299221     0.07300
C2907       C  0.67415947  0.82858169  0.54583594    -0.14800
C2908       C  0.64828335  0.81575575  0.54751847    -0.14800
C2909       C  0.63449849  0.78954248  0.54653846     0.07300
C2910       C  0.64759865  0.77645870  0.54378032    -0.14800
H2911       H  0.68353079  0.77906591  0.53966110     0.11300
H2912       H  0.68374886  0.84876323  0.54681425     0.11300
H2913       H  0.63910113  0.82663396  0.54984364     0.11300
H2914       H  0.63758788  0.75626954  0.54303059     0.11300
C2915       C  0.54693628  0.78585257  0.65382255    -0.14800
C2916       C  0.56103682  0.77495230  0.64498998     0.07300
C2917       C  0.57126681  0.76634645  0.66655328    -0.14800
C2918       C  0.56717281  0.76844428  0.69655275    -0.14800
C2919       C  0.55221807  0.77844989  0.70515793     0.07300
C2920       C  0.54233604  0.78733430  0.68359992    -0.14800
H2921       H  0.53862839  0.79243761  0.63762289     0.11300
H2922       H  0.58216001  0.75787205  0.66021294     0.11300
H2923       H  0.57509629  0.76164475  0.71298708     0.11300
H2924       H  0.53111459  0.79549848  0.68980374     0.11300
C2925       C  0.54073860  0.76557767  0.93421321    -0.14800
C2926       C  0.55028922  0.78448561  0.95550427     0.07300
C2927       C  0.56409943  0.80954611  0.94657762    -0.14800
C2928       C  0.56778973  0.81564670  0.91651466    -0.14800
C2929       C  0.55834883  0.79667511  0.89517613     0.07300
C2930       C  0.54498970  0.77159793  0.90431810    -0.14800
H2931       H  0.53020322  0.74611064  0.94075658     0.11300
H2932       H  0.57155807  0.82435569  0.96282971     0.11300
H2933       H  0.57799623  0.83510212  0.90994877     0.11300
H2934       H  0.53721582  0.75661452  0.88831059     0.11300
C2935       C  0.51226747  0.64320450  0.96929771    -0.14800
C2936       C  0.51576624  0.65109880  0.93968188     0.07300
C2937       C  0.53005469  0.67660633  0.93295577    -0.14800
C2938       C  0.53866018  0.69416868  0.95568196    -0.14800
C2939       C  0.53368150  0.68630716  0.98527802     0.07300
C2940       C  0.52151278  0.66075179  0.99203223    -0.14800
H2941       H  0.50086803  0.62356349  0.97480166     0.11300
H2942       H  0.53241105  0.68299390  0.91021779     0.11300
H2943       H  0.54755811  0.71384565  0.95016303     0.11300
H2944       H  0.51700423  0.65442218  0.01473449     0.11300
C2945       C  0.49334255  0.67428380  0.80643200    -0.14800
C2946       C  0.47611261  0.66455209  0.82986893     0.07300
C2947       C  0.46610518  0.67901953  0.84086977    -0.14800
C2948       C  0.47476774  0.70344617  0.83028240    -0.14800
C2949       C  0.49365192  0.71373880  0.80871598     0.07300
C2950       C  0.50205658  0.69854104  0.79614917    -0.14800
H2951       H  0.50129822  0.66370876  0.79714489     0.11300
H2952       H  0.45281769  0.67211695  0.85895538     0.11300
H2953       H  0.46808210  0.71482667  0.84042587     0.11300
H2954       H  0.51646024  0.70594236  0.77927818     0.11300
C2955       C  0.54191983  0.56392920  0.87789525    -0.14800
C2956       C  0.51568508  0.55055900  0.87599738     0.07300
C2957       C  0.50342327  0.52435685  0.87620514    -0.14800
C2958       C  0.51664769  0.51179178  0.87837908    -0.14800
C2959       C  0.54277091  0.52481883  0.88058084     0.07300
C2960       C  0.55538219  0.55113413  0.88021104    -0.14800
H2961       H  0.55195912  0.58413124  0.87762915     0.11300
H2962       H  0.48332852  0.51324949  0.87463348     0.11300
H2963       H  0.50609690  0.49158659  0.87848172     0.11300
H2964       H  0.57548842  0.56174782  0.88189085     0.11300
C2965       C  0.65376114  0.53106618  0.76364914    -0.14800
C2966       C  0.67924932  0.54405105  0.77026441     0.07300
C2967       C  0.68691593  0.55035852  0.79967854    -0.14800
C2968       C  0.66926858  0.54215588  0.82248803    -0.14800
C2969       C  0.64388866  0.52689999  0.81607439     0.07300
C2970       C  0.63616161  0.52220884  0.78648584    -0.14800
H2971       H  0.64757561  0.52557120  0.74111531     0.11300
H2972       H  0.70658208  0.55996377  0.80514680     0.11300
H2973       H  0.67557272  0.54547508  0.84519610     0.11300
H2974       H  0.61666116  0.51007333  0.78120586     0.11300
C2975       C  0.79180090  0.80805002  0.66184561    -0.14800
C2976       C  0.80401720  0.79481972  0.65491103     0.07300
C2977       C  0.80563202  0.78901639  0.62531735    -0.14800
C2978       C  0.79658932  0.79781959  0.60273746    -0.14800
C2979       C  0.78661263  0.81315775  0.60953562     0.07300
C2980       C  0.78345457  0.81747820  0.63924995    -0.14800
H2981       H  0.79094500  0.81318861  0.68451370     0.11300
H2982       H  0.81545952  0.77926698  0.61960763     0.11300
H2983       H  0.79967687  0.79476295  0.57990246     0.11300
H2984       H  0.77619154  0.82963949  0.64485229     0.11300
C2985       C  0.78173629  0.68146806  0.71327528    -0.14800
C2986       C  0.80780321  0.69475046  0.71676207     0.07300
C2987       C  0.82063916  0.68138820  0.71681089    -0.14800
C2988       C  0.80802859  0.65565675  0.71350538    -0.14800
C2989       C  0.78204596  0.64218407  0.70996207     0.07300
C2990       C  0.76892958  0.65533200  0.70990930    -0.14800
H2991       H  0.77131388  0.69121498  0.71316166     0.11300
H2992       H  0.84067025  0.69078462  0.71942086     0.11300
H2993       H  0.81887795  0.64634798  0.71368929     0.11300
H2994       H  0.74890697  0.64548859  0.70712129     0.11300
C2995       C  0.85471391  0.87163106  0.75338586    -0.14800
C2996       C  0.84385652  0.84679828  0.76372167     0.07300
C2997       C  0.82558769  0.83881683  0.78598654    -0.14800
C2998       C  0.81664868  0.85427319  0.79550785    -0.14800
C2999       C  0.82584580  0.87823014  0.78329930     0.07300
C3000       C  0.84582197  0.88729654  0.76320457    -0.14800
H3001       H  0.86892445  0.87843297  0.73631111     0.11300
H3002       H  0.81699507  0.82001261  0.79479139     0.11300
H3003       H  0.80153078  0.84694502  0.81146841     0.11300
H3004       H  0.85329569  0.90571610  0.75356389     0.11300
C3005       C  0.87974597  0.85291158  0.00198359    -0.14800
C3006       C  0.87133733  0.83459483  0.97990912     0.07300
C3007       C  0.84874511  0.82729624  0.46652114    -0.14800
C3008       C  0.83354637  0.83645390  0.47640611    -0.14800
C3009       C  0.84079085  0.85296305  0.50041153     0.07300
C3010       C  0.86422358  0.86186144  0.01214715    -0.14800
H3011       H  0.89741565  0.85891268  0.01276381     0.11300
H3012       H  0.84195752  0.81348112  0.44909397     0.11300
H3013       H  0.81542473  0.82939479  0.46633138     0.11300
H3014       H  0.87035381  0.87462110  0.03064677     0.11300
C3015       C  0.89880696  0.75885491  0.58733349    -0.14800
C3016       C  0.88873905  0.76788404  0.56601287     0.07300
C3017       C  0.87578024  0.77988297  0.57531725    -0.14800
C3018       C  0.87378911  0.78374181  0.60519284    -0.14800
C3019       C  0.88419906  0.77517172  0.62641623     0.07300
C3020       C  0.89620643  0.76216947  0.61746445    -0.14800
H3021       H  0.90885737  0.74954770  0.58071232     0.11300
H3022       H  0.86792530  0.78718102  0.55942100     0.11300
H3023       H  0.86417475  0.79351483  0.61176346     0.11300
H3024       H  0.90426388  0.75535635  0.63369692     0.11300
C3025       C  0.88963032  0.78474367  0.82504254    -0.14800
C3026       C  0.86500420  0.76902662  0.81586294     0.07300
C3027       C  0.84606653  0.75696866  0.83714938    -0.14800
C3028       C  0.85185749  0.76057887  0.86728304    -0.14800
C3029       C  0.87645545  0.77688474  0.87621360     0.07300
C3030       C  0.89524439  0.78882343  0.85488644    -0.14800
H3031       H  0.90453067  0.79449177  0.80908635     0.11300
H3032       H  0.82693775  0.74482476  0.83048649     0.11300
H3033       H  0.83714591  0.75115182  0.88352949     0.11300
H3034       H  0.91440834  0.80122294  0.86133431     0.11300
C3035       C  0.69240901  0.51252488  0.96033227    -0.14800
C3036       C  0.70798998  0.50492432  0.94697571     0.07300
C3037       C  0.69834695  0.48730246  0.92412106    -0.14800
C3038       C  0.67411391  0.47889925  0.91343009    -0.14800
C3039       C  0.65913571  0.48790420  0.92557672     0.07300
C3040       C  0.66831203  0.50406107  0.94990016    -0.14800
H3041       H  0.69933255  0.52600411  0.97808749     0.11300
H3042       H  0.71007750  0.48137275  0.91322564     0.11300
H3043       H  0.66771550  0.46657086  0.89456017     0.11300
H3044       H  0.65732758  0.51125433  0.95999802     0.11300
C3045       C  0.87628215  0.65660561  0.96157632    -0.14800
C3046       C  0.85019450  0.64314270  0.95793287     0.07300
C3047       C  0.83739137  0.65655673  0.95740539    -0.14800
C3048       C  0.84988300  0.68230880  0.96070944    -0.14800
C3049       C  0.87580489  0.69595537  0.96473426     0.07300
C3050       C  0.88900817  0.68284816  0.96492048    -0.14800
H3051       H  0.88675536  0.64691600  0.96199030     0.11300
H3052       H  0.81738593  0.64716490  0.95453555     0.11300
H3053       H  0.83892952  0.69150732  0.96021831     0.11300
H3054       H  0.90900137  0.69278031  0.96796899     0.11300
C3055       C  0.80130585  0.46477368  0.92648593    -0.14800
C3056       C  0.81006132  0.48859079  0.91368786     0.07300
C3057       C  0.82538217  0.49500332  0.88849921    -0.14800
C3058       C  0.83371352  0.47920462  0.87814035    -0.14800
C3059       C  0.82678155  0.45644924  0.89246088     0.07300
C3060       C  0.80958397  0.44879304  0.91589404    -0.14800
H3061       H  0.78950843  0.45922306  0.94593040     0.11300
H3062       H  0.83224603  0.51299116  0.87781285     0.11300
H3063       H  0.84682342  0.48545249  0.85988220     0.11300
H3064       H  0.80412075  0.43142731  0.92746613     0.11300
C3065       C  0.76571127  0.55471683  0.85168552    -0.14800
C3066       C  0.79073470  0.56840609  0.86052496     0.07300
C3067       C  0.80962205  0.57871734  0.83892278    -0.14800
C3068       C  0.80343045  0.57517525  0.80888815    -0.14800
C3069       C  0.77841705  0.56068993  0.80031054     0.07300
C3070       C  0.75965424  0.55068905  0.82190202    -0.14800
H3071       H  0.75079449  0.54643138  0.86781677     0.11300
H3072       H  0.82897977  0.58933323  0.84523355     0.11300
H3073       H  0.81816264  0.58315682  0.79241000     0.11300
H3074       H  0.74019796  0.53978090  0.81570025     0.11300
C3075       C  0.75949674  0.58068328  0.58915457    -0.14800
C3076       C  0.76905982  0.57099780  0.61028109     0.07300
C3077       C  0.78184310  0.55886952  0.60082667    -0.14800
C3078       C  0.78377437  0.55519256  0.57090248    -0.14800
C3079       C  0.77352115  0.56408986  0.54989550     0.07300
C3080       C  0.76204261  0.57754428  0.55900347    -0.14800
H3081       H  0.74968880  0.59023225  0.59595554     0.11300
H3082       H  0.78938784  0.55120287  0.61658026     0.11300
H3083       H  0.79306961  0.54510975  0.56411210     0.11300
H3084       H  0.75421768  0.58467392  0.54291772     0.11300
C3085       C  0.15242456  0.52253330  0.63019593    -0.14800
C3086       C  0.16055960  0.54605063  0.61726866     0.07300
C3087       C  0.17947033  0.55483317  0.59573988    -0.14800
C3088       C  0.18840319  0.53929915  0.58548298    -0.14800
C3089       C  0.17863287  0.51486060  0.59679375     0.07300
C3090       C  0.16143730  0.50721974  0.62025682    -0.14800
H3091       H  0.13805953  0.51543839  0.64708467     0.11300
H3092       H  0.18597978  0.57286908  0.58536272     0.11300
H3093       H  0.20165035  0.54578148  0.56738249     0.11300
H3094       H  0.15370755  0.48870853  0.62979195     0.11300
C3095       C  0.08276928  0.57141613  0.50958080    -0.14800
C3096       C  0.09477952  0.56435991  0.53058942     0.07300
C3097       C  0.11011723  0.55506406  0.52114380    -0.14800
C3098       C  0.11637551  0.55503775  0.99158994    -0.14800
C3099       C  0.10357934  0.56092540  0.97044163     0.07300
C3100       C  0.08653921  0.56820913  0.97971287    -0.14800
H3101       H  0.07089933  0.57869464  0.51650820     0.11300
H3102       H  0.11979239  0.54978306  0.53694308     0.11300
H3103       H  0.12938028  0.54905980  0.98492104     0.11300
H3104       H  0.07642104  0.57272618  0.96368954     0.11300
C3105       C  0.11149344  0.57150638  0.74159621    -0.14800
C3106       C  0.10160084  0.55237653  0.72057319     0.07300
C3107       C  0.08666377  0.52751356  0.72981846    -0.14800
C3108       C  0.08268811  0.52178982  0.75997728    -0.14800
C3109       C  0.09300371  0.54098298  0.78103115     0.07300
C3110       C  0.10699972  0.56589578  0.77151657    -0.14800
H3111       H  0.12275806  0.59084640  0.73485317     0.11300
H3112       H  0.07874868  0.51253402  0.71380014     0.11300
H3113       H  0.07185210  0.50245582  0.76684812     0.11300
H3114       H  0.11534988  0.58105282  0.78727249     0.11300
C3115       C  0.80839091  0.36863467  0.66691146    -0.14800
C3116       C  0.82742453  0.37896702  0.64553979     0.07300
C3117       C  0.83577294  0.36378265  0.63283045    -0.14800
C3118       C  0.82698702  0.33951370  0.64299351    -0.14800
C3119       C  0.80975661  0.32981372  0.66640807     0.07300
C3120       C  0.79965837  0.34419346  0.67738113    -0.14800
H3121       H  0.80165006  0.37998210  0.67700272     0.11300
H3122       H  0.85017396  0.37118650  0.61596318     0.11300
H3123       H  0.83489247  0.32891154  0.63365471     0.11300
H3124       H  0.78627292  0.33722256  0.69536399     0.11300
C3125       C  0.87039447  0.51795848  0.53876072    -0.14800
C3126       C  0.86797214  0.52318681  0.56836336     0.07300
C3127       C  0.85909753  0.53953548  0.57474716    -0.14800
C3128       C  0.85042467  0.54853077  0.55191740    -0.14800
C3129       C  0.85132614  0.54190558  0.52246363     0.07300
C3130       C  0.86243436  0.52755331  0.51593194    -0.14800
H3131       H  0.87678460  0.50504331  0.53347581     0.11300
H3132       H  0.85660320  0.54334455  0.59747930     0.11300
H3133       H  0.84143687  0.55915991  0.55737775     0.11300
H3134       H  0.86230753  0.52078683  0.99280983     0.11300
C3135       C  0.90363780  0.48273282  0.75186106    -0.14800
C3136       C  0.89584792  0.46348522  0.73094914     0.07300
C3137       C  0.88582642  0.43871889  0.74074602    -0.14800
C3138       C  0.88225943  0.43312343  0.77072740    -0.14800
C3139       C  0.88912479  0.45217965  0.79147748     0.07300
C3140       C  0.90057023  0.47711199  0.78208382    -0.14800
H3141       H  0.91155618  0.50199873  0.74484175     0.11300
H3142       H  0.87966698  0.42349053  0.72522115     0.11300
H3143       H  0.87370508  0.41377425  0.77776002     0.11300
H3144       H  0.90606077  0.49200235  0.79797110     0.11300
C3145       C  0.90178627  0.43524714  0.53217858    -0.14800
C3146       C  0.88391669  0.44145882  0.54131614     0.07300
C3147       C  0.87017869  0.44598711  0.52005765    -0.14800
C3148       C  0.87429729  0.44450029  0.49016587    -0.14800
C3149       C  0.89038442  0.43693093  0.98083817     0.07300
C3150       C  0.90464136  0.43269999  0.00169110    -0.14800
H3151       H  0.91260127  0.43171407  0.54829932     0.11300
H3152       H  0.85648205  0.45104243  0.52653110     0.11300
H3153       H  0.86114668  0.44600400  0.97465816     0.11300
H3154       H  0.91833515  0.42782827  0.99462825     0.11300
C3155       C  0.98080664  0.50823876  0.62835751    -0.14800
C3156       C  0.96743354  0.52085189  0.63228837     0.07300
C3157       C  0.98092724  0.54710463  0.63430505    -0.14800
C3158       C  0.00719519  0.56028032  0.63234329    -0.14800
C3159       C  0.02037471  0.54739241  0.62846517     0.07300
C3160       C  0.00668796  0.52121005  0.62654342    -0.14800
H3161       H  0.97128370  0.48809015  0.62672358     0.11300
H3162       H  0.97123998  0.55739647  0.63759103     0.11300
H3163       H  0.01713939  0.58043544  0.63392917     0.11300
H3164       H  0.01595467  0.51048926  0.62341676     0.11300
C3165       C  0.82156445  0.50071187  0.70220474    -0.14800
C3166       C  0.81426183  0.48372967  0.67872159     0.07300
C3167       C  0.79006284  0.47411853  0.66706752    -0.14800
C3168       C  0.77448149  0.48308612  0.67693431    -0.14800
C3169       C  0.78296517  0.50182982  0.69845670     0.07300
C3170       C  0.80616152  0.50970768  0.71183552    -0.14800
H3171       H  0.83987889  0.50828597  0.71197462     0.11300
H3172       H  0.78384133  0.46100676  0.64894807     0.11300
H3173       H  0.75670657  0.47678766  0.66622693     0.11300
H3174       H  0.81299454  0.52394031  0.72875614     0.11300
C3175       C  0.01938000  0.81729201  0.88650104    -0.14800
C3176       C  0.01165924  0.81330668  0.85688161     0.07300
C3177       C  0.98616511  0.79919800  0.85042748    -0.14800
C3178       C  0.96852914  0.79121466  0.87326839    -0.14800
C3179       C  0.97626219  0.79659165  0.90280872     0.07300
C3180       C  0.00176227  0.80866347  0.90936089    -0.14800
H3181       H  0.03893924  0.82853570  0.89183286     0.11300
H3182       H  0.97986571  0.79648468  0.82769332     0.11300
H3183       H  0.94892768  0.78232639  0.86782550     0.11300
H3184       H  0.00806198  0.81347702  0.93198954     0.11300
C3185       C  0.98353108  0.86168835  0.75926466    -0.14800
C3186       C  0.99799535  0.85202997  0.74726596     0.07300
C3187       C  0.98814777  0.83507521  0.72378563    -0.14800
C3188       C  0.96377149  0.82627567  0.71433418    -0.14800
C3189       C  0.94862195  0.83431497  0.72789912     0.07300
C3190       C  0.95899210  0.85291152  0.74958110    -0.14800
H3191       H  0.99052973  0.87472621  0.77744541     0.11300
H3192       H  0.99876212  0.82741186  0.71381151     0.11300
H3193       H  0.95627392  0.81211112  0.69734854     0.11300
H3194       H  0.94762270  0.85927763  0.76048803     0.11300
C3195       C  0.15209483  0.81460944  0.80352648    -0.14800
C3196       C  0.14020868  0.78859415  0.80012455     0.07300
C3197       C  0.11433556  0.77536610  0.79477853    -0.14800
C3198       C  0.10092763  0.78816498  0.79215239    -0.14800
C3199       C  0.11323685  0.81434175  0.79484683     0.07300
C3200       C  0.13889524  0.82719633  0.80098619    -0.14800
H3201       H  0.17186446  0.82552290  0.80803915     0.11300
H3202       H  0.10458160  0.75528426  0.79226388     0.11300
H3203       H  0.08117181  0.77771258  0.78745956     0.11300
H3204       H  0.14908020  0.84728171  0.80358609     0.11300
C3205       C  0.18647172  0.65818901  0.83124689    -0.14800
C3206       C  0.17792322  0.67345650  0.84364601     0.07300
C3207       C  0.16190232  0.66442453  0.86825411    -0.14800
C3208       C  0.15292269  0.64011473  0.87855199    -0.14800
C3209       C  0.15992437  0.62421979  0.86481436     0.07300
C3210       C  0.17759356  0.63375510  0.84185212    -0.14800
H3211       H  0.19874733  0.66451071  0.81221688     0.11300
H3212       H  0.15508148  0.67564258  0.87858120     0.11300
H3213       H  0.13949714  0.63329486  0.89648302     0.11300
H3214       H  0.18316136  0.62180798  0.83078175     0.11300
C3215       C  0.13923799  0.69378216  0.70650020    -0.14800
C3216       C  0.13720485  0.68644959  0.73622921     0.07300
C3217       C  0.12438677  0.66100967  0.74361209    -0.14800
C3218       C  0.11602998  0.64308884  0.72131457    -0.14800
C3219       C  0.11976643  0.65049528  0.69153169     0.07300
C3220       C  0.13020572  0.67582090  0.68421952    -0.14800
H3221       H  0.14947550  0.71336724  0.70049301     0.11300
H3222       H  0.12318097  0.65509638  0.76642732     0.11300
H3223       H  0.10834473  0.62362231  0.72723737     0.11300
H3224       H  0.13365812  0.68182902  0.66131481     0.11300
C3225       C  0.21397225  0.70273115  0.58221969    -0.14800
C3226       C  0.20528188  0.71279849  0.56056325     0.07300
C3227       C  0.18175582  0.69737856  0.54797606    -0.14800
C3228       C  0.16628588  0.67320302  0.55852468    -0.14800
C3229       C  0.17382247  0.66376958  0.58213416     0.07300
C3230       C  0.19830777  0.67836024  0.59300849    -0.14800
H3231       H  0.23203485  0.71425920  0.59230968     0.11300
H3232       H  0.17473254  0.70455205  0.53094803     0.11300
H3233       H  0.14775019  0.66243864  0.54928548     0.11300
H3234       H  0.20472641  0.67164094  0.61116014     0.11300
C3235       C  0.35705582  0.84498935  0.62571753    -0.14800
C3236       C  0.37260360  0.83723404  0.61259510     0.07300
C3237       C  0.36280924  0.81909437  0.59031945    -0.14800
C3238       C  0.33841303  0.81027766  0.57995930    -0.14800
C3239       C  0.32343036  0.81938047  0.59187147     0.07300
C3240       C  0.33281417  0.83613519  0.61560593    -0.14800
H3241       H  0.36407929  0.85883404  0.64307607     0.11300
H3242       H  0.37448921  0.81299873  0.57964453     0.11300
H3243       H  0.33185092  0.79748741  0.56152419     0.11300
H3244       H  0.32184873  0.84343916  0.62548990     0.11300
C3245       C  0.20863648  0.77164796  0.65566465    -0.14800
C3246       C  0.22129119  0.79654945  0.64585440     0.07300
C3247       C  0.23099855  0.81594499  0.66668779    -0.14800
C3248       C  0.22841762  0.81040827  0.69692501    -0.14800
C3249       C  0.21676752  0.78548277  0.70641996     0.07300
C3250       C  0.20665311  0.76618501  0.68566966    -0.14800
H3251       H  0.20106950  0.75631575  0.64012044     0.11300
H3252       H  0.24078658  0.83528731  0.65959987     0.11300
H3253       H  0.23625766  0.82548100  0.71280248     0.11300
H3254       H  0.19735339  0.74682988  0.69272451     0.11300
C3255       C  0.22979338  0.78380092  0.93514258    -0.14800
C3256       C  0.21080209  0.77654962  0.95627791     0.07300
C3257       C  0.18631282  0.76840321  0.94712741    -0.14800
C3258       C  0.18077273  0.76663780  0.91699806    -0.14800
C3259       C  0.19983097  0.77372669  0.89589780     0.07300
C3260       C  0.22441201  0.78266497  0.90523106    -0.14800
H3261       H  0.24890266  0.79051329  0.94178936     0.11300
H3262       H  0.17146543  0.76287416  0.96320912     0.11300
H3263       H  0.16167964  0.75966677  0.91018040     0.11300
H3264       H  0.23938052  0.78800469  0.88937276     0.11300
C3265       C  0.02281690  0.85814071  0.54664762    -0.14800
C3266       C  0.03827098  0.88099563  0.53232031     0.07300
C3267       C  0.02812730  0.88916364  0.51021634    -0.14800
C3268       C  0.00379994  0.87362729  0.99936237    -0.14800
C3269       C  0.98890737  0.84943357  0.51306232     0.07300
C3270       C  0.99839754  0.84260650  0.53726949    -0.14800
H3271       H  0.03015554  0.85160524  0.56404981     0.11300
H3272       H  0.03971994  0.90670956  0.49883961     0.11300
H3273       H  0.99713504  0.87950080  0.98061613     0.11300
H3274       H  0.98756101  0.82447738  0.54771998     0.11300
C3275       C  0.20490938  0.89270058  0.53986578    -0.14800
C3276       C  0.17873498  0.88011593  0.54250424     0.07300
C3277       C  0.16608898  0.85428329  0.54815607    -0.14800
C3278       C  0.17897885  0.84130459  0.55071428    -0.14800
C3279       C  0.20507242  0.85360842  0.54777818     0.07300
C3280       C  0.21797237  0.87955997  0.54250332    -0.14800
H3281       H  0.21522507  0.91257061  0.53542200     0.11300
H3282       H  0.14600872  0.84386616  0.55053181     0.11300
H3283       H  0.16829123  0.82143094  0.55506572     0.11300
H3284       H  0.23805837  0.88963316  0.54019991     0.11300
C3285       C  0.09644781  0.88456553  0.93376089    -0.14800
C3286       C  0.12129255  0.89633447  0.94326412     0.07300
C3287       C  0.14063062  0.90579075  0.92217321    -0.14800
C3288       C  0.13509055  0.90365696  0.89200626    -0.14800
C3289       C  0.11025186  0.89276613  0.88279860     0.07300
C3290       C  0.09100102  0.88309191  0.90381414    -0.14800
H3291       H  0.08117531  0.87729144  0.94952775     0.11300
H3292       H  0.15991477  0.91497082  0.92900709     0.11300
H3293       H  0.15014503  0.91113958  0.87594607     0.11300
H3294       H  0.07172367  0.87439549  0.89702496     0.11300
C3295       C  0.09439147  0.86034070  0.64231021    -0.14800
C3296       C  0.10137692  0.88480171  0.63352076     0.07300
C3297       C  0.10661805  0.90299569  0.65507101    -0.14800
C3298       C  0.10481795  0.89691609  0.68486365    -0.14800
C3299       C  0.09725222  0.87241593  0.69379312     0.07300
C3300       C  0.09193928  0.85405623  0.67238436    -0.14800
H3301       H  0.09038111  0.84604943  0.62596785     0.11300
H3302       H  0.11234379  0.92204515  0.64889386     0.11300
H3303       H  0.10872056  0.91132988  0.70102117     0.11300
H3304       H  0.08604622  0.83505293  0.67891671     0.11300
C3305       C  0.49972764  0.16850918  0.63833165    -0.14800
C3306       C  0.50670159  0.18508197  0.66222251     0.07300
C3307       C  0.53071910  0.19444445  0.67431320    -0.14800
C3308       C  0.54655201  0.18586160  0.66420448    -0.14800
C3309       C  0.53853948  0.16772900  0.64197652     0.07300
C3310       C  0.51539702  0.15989171  0.62843841    -0.14800
H3311       H  0.48152110  0.16105328  0.62831005     0.11300
H3312       H  0.53664093  0.20712968  0.69285364     0.11300
H3313       H  0.56420030  0.19201644  0.67516514     0.11300
H3314       H  0.50885610  0.14604726  0.61107819     0.11300
C3315       C  0.20340614  0.02790124  0.61810179    -0.14800
C3316       C  0.20154426  0.02046289  0.64777887     0.07300
C3317       C  0.19317678  0.99533843  0.65455394    -0.14800
C3318       C  0.18419349  0.97747254  0.63207864    -0.14800
C3319       C  0.18433414  0.98476266  0.60264317     0.07300
C3320       C  0.19511827  0.01016818  0.59561423    -0.14800
H3321       H  0.20953582  0.04718121  0.61252781     0.11300
H3322       H  0.19118726  0.98922105  0.67736665     0.11300
H3323       H  0.17539826  0.95785549  0.63787180     0.11300
H3324       H  0.19479521  0.01601276  0.57309669     0.11300
C3325       C  0.33989936  0.12151115  0.70466113    -0.14800
C3326       C  0.35378514  0.14718006  0.71119994     0.07300
C3327       C  0.34093541  0.15930747  0.72048038    -0.14800
C3328       C  0.31504730  0.14661398  0.72209324    -0.14800
C3329       C  0.30093463  0.12123730  0.71461801     0.07300
C3330       C  0.31363966  0.10860935  0.70640708    -0.14800
H3331       H  0.34924488  0.11163324  0.69742619     0.11300
H3332       H  0.35090406  0.17892606  0.72613420     0.11300
H3333       H  0.30607070  0.15690917  0.72913175     0.11300
H3334       H  0.30331770  0.08901026  0.70075391     0.11300
C3335       C  0.12366311  0.99093713  0.74619106    -0.14800
C3336       C  0.14788629  0.00562744  0.75769913     0.07300
C3337       C  0.15533262  0.99599067  0.78120882    -0.14800
C3338       C  0.13994014  0.97162731  0.79119497    -0.14800
C3339       C  0.11658346  0.95629460  0.77823069     0.07300
C3340       C  0.10805568  0.96642311  0.75647320    -0.14800
H3341       H  0.11736537  0.99777832  0.72798225     0.11300
H3342       H  0.17368270  0.00675900  0.79081832     0.11300
H3343       H  0.14683370  0.96431735  0.80826364     0.11300
H3344       H  0.09017820  0.95491508  0.74606739     0.11300
C3345       C  0.47597171  0.85036161  0.87145261    -0.14800
C3346       C  0.45075506  0.83873830  0.86329411     0.07300
C3347       C  0.44076004  0.81676459  0.84645573    -0.14800
C3348       C  0.45634318  0.80787649  0.83603416    -0.14800
C3349       C  0.48203671  0.82071067  0.84262910     0.07300
C3350       C  0.49129506  0.84147336  0.86142850    -0.14800
H3351       H  0.48422730  0.86710562  0.88477171     0.11300
H3352       H  0.42136796  0.80737140  0.83990991     0.11300
H3353       H  0.44857241  0.79178765  0.82166368     0.11300
H3354       H  0.51084529  0.85183390  0.86726867     0.11300
C3355       C  0.43902803  0.88547323  0.76887058    -0.14800
C3356       C  0.43141519  0.90238315  0.77748371     0.07300
C3357       C  0.42612618  0.91536426  0.75586820    -0.14800
C3358       C  0.42859525  0.91152085  0.72590222    -0.14800
C3359       C  0.43551401  0.89403051  0.71735057     0.07300
C3360       C  0.44075843  0.88109703  0.73907088    -0.14800
H3361       H  0.44285753  0.87500236  0.78523844     0.11300
H3362       H  0.42012314  0.92839109  0.76217585     0.11300
H3363       H  0.42456823  0.92176291  0.70942336     0.11300
H3364       H  0.44640249  0.86773304  0.73299171     0.11300
C3365       C  0.46686216  0.90852314  0.97603550    -0.14800
C3366       C  0.44183676  0.89405570  0.96753126     0.07300
C3367       C  0.42310752  0.88406724  0.98918927    -0.14800
C3368       C  0.42970004  0.88897561  0.51907353    -0.14800
C3369       C  0.45486415  0.90200674  0.52754559     0.07300
C3370       C  0.47312415  0.91211820  0.00602040    -0.14800
H3371       H  0.48155103  0.91644199  0.95952287     0.11300
H3372       H  0.40367323  0.87313225  0.98303720     0.11300
H3373       H  0.41490711  0.88158594  0.53546955     0.11300
H3374       H  0.49302398  0.92100808  0.51167930     0.11300
C3375       C  0.35025913  0.88049966  0.96652469    -0.14800
C3376       C  0.34248271  0.87491782  0.93705516     0.07300
C3377       C  0.31698799  0.86248576  0.93046710    -0.14800
C3378       C  0.29941602  0.85351360  0.95334088    -0.14800
C3379       C  0.30724048  0.85754269  0.98290763     0.07300
C3380       C  0.33267135  0.87217043  0.98936398    -0.14800
H3381       H  0.36989507  0.88965777  0.97192656     0.11300
H3382       H  0.31073219  0.85756724  0.90785514     0.11300
H3383       H  0.27986392  0.84181584  0.94805962     0.11300
H3384       H  0.33899622  0.87457920  0.51207213     0.11300
C3385       C  0.32209044  0.82936155  0.80439619    -0.14800
C3386       C  0.33138705  0.82195107  0.82829912     0.07300
C3387       C  0.31648572  0.79773156  0.84009684    -0.14800
C3388       C  0.29201160  0.78226468  0.82994407    -0.14800
C3389       C  0.28210498  0.79089909  0.80803268     0.07300
C3390       C  0.29774713  0.81411124  0.79454311    -0.14800
H3391       H  0.33307065  0.84769783  0.79448576     0.11300
H3392       H  0.32304868  0.79143458  0.85855066     0.11300
H3393       H  0.28029955  0.76445583  0.84072177     0.11300
H3394       H  0.29067284  0.82106965  0.77731422     0.11300
C3395       C  0.62572622  0.18357667  0.91554961    -0.14800
C3396       C  0.61548064  0.16433772  0.89459515     0.07300
C3397       C  0.63060388  0.15558226  0.88263919    -0.14800
C3398       C  0.65490869  0.16470526  0.89259837    -0.14800
C3399       C  0.66474747  0.18267080  0.91509503     0.07300
C3400       C  0.65015674  0.19261173  0.92583734    -0.14800
H3401       H  0.61439116  0.19052717  0.92524677     0.11300
H3402       H  0.62327939  0.14092693  0.86624607     0.11300
H3403       H  0.66555345  0.15668915  0.88363338     0.11300
H3404       H  0.65707919  0.20633779  0.94330292     0.11300
C3405       C  0.44681226  0.01626496  0.87136185    -0.14800
C3406       C  0.47072642  0.02824716  0.88414840     0.07300
C3407       C  0.48017618  0.01346106  0.89536010    -0.14800
C3408       C  0.46684937  0.98762959  0.89277085    -0.14800
C3409       C  0.44354598  0.97551997  0.87880418     0.07300
C3410       C  0.43328926  0.99000848  0.86867149    -0.14800
H3411       H  0.43899870  0.02716105  0.86263264     0.11300
H3412       H  0.49823886  0.02191425  0.90593026     0.11300
H3413       H  0.47515194  0.97710277  0.90130744     0.11300
H3414       H  0.41537320  0.98118439  0.85777112     0.11300
C3415       C  0.55726811  0.11708574  0.98834149    -0.14800
C3416       C  0.53234822  0.10223772  0.97956440     0.07300
C3417       C  0.51366716  0.08970407  0.50106143    -0.14800
C3418       C  0.51992345  0.09329870  0.53106948    -0.14800
C3419       C  0.54457213  0.10997262  0.53961133     0.07300
C3420       C  0.56293809  0.12235126  0.51791330    -0.14800
H3421       H  0.57202017  0.12622467  0.97210776     0.11300
H3422       H  0.49449141  0.07720896  0.49472805     0.11300
H3423       H  0.50551445  0.08354844  0.54754063     0.11300
H3424       H  0.58214253  0.13509777  0.52399974     0.11300
C3425       C  0.55913008  0.09151421  0.78040225    -0.14800
C3426       C  0.55145983  0.10817630  0.78990730     0.07300
C3427       C  0.54544002  0.12107072  0.76897657    -0.14800
C3428       C  0.54727267  0.11761370  0.73896204    -0.14800
C3429       C  0.55572785  0.10164267  0.72927953     0.07300
C3430       C  0.56166022  0.08855936  0.75015543    -0.14800
H3431       H  0.56382790  0.08139478  0.79632541     0.11300
H3432       H  0.53925939  0.13383002  0.77587207     0.11300
H3433       H  0.54285314  0.12812135  0.72329285     0.11300
H3434       H  0.56826297  0.07620459  0.74308401     0.11300
C3435       C  0.47786960  0.12576852  0.78685342    -0.14800
C3436       C  0.47398300  0.12947449  0.81653843     0.07300
C3437       C  0.45872306  0.13952026  0.82336905    -0.14800
C3438       C  0.44940531  0.14794521  0.80072346    -0.14800
C3439       C  0.45459819  0.14563950  0.77107241     0.07300
C3440       C  0.46791568  0.13349635  0.76421786    -0.14800
H3441       H  0.48991274  0.11837203  0.78122780     0.11300
H3442       H  0.45599245  0.14300234  0.84614929     0.11300
H3443       H  0.43969194  0.15784816  0.80634920     0.11300
H3444       H  0.47266762  0.13220972  0.74148327     0.11300
C3445       C  0.49181289  0.19358951  0.96097504    -0.14800
C3446       C  0.49676199  0.21504830  0.94488926     0.07300
C3447       C  0.51209184  0.22159530  0.91973586    -0.14800
C3448       C  0.52070126  0.20578334  0.90961940    -0.14800
C3449       C  0.51412651  0.18325590  0.92457684     0.07300
C3450       C  0.50048727  0.17794906  0.95105586    -0.14800
H3451       H  0.48006733  0.18822145  0.98050342     0.11300
H3452       H  0.51584673  0.23785524  0.90676925     0.11300
H3453       H  0.53099066  0.21031645  0.88899398     0.11300
H3454       H  0.49526399  0.16092303  0.96324015     0.11300
C3455       C  0.50140370  0.34339202  0.89160636    -0.14800
C3456       C  0.50911837  0.33347827  0.91454373     0.07300
C3457       C  0.53352361  0.34806761  0.92563573    -0.14800
C3458       C  0.54906134  0.37267440  0.91544971    -0.14800
C3459       C  0.54032596  0.38303501  0.89421402     0.07300
C3460       C  0.51672055  0.36781535  0.88171411    -0.14800
H3461       H  0.48289362  0.33272729  0.88228813     0.11300
H3462       H  0.54004231  0.34104601  0.94337131     0.11300
H3463       H  0.56714624  0.38406718  0.92553907     0.11300
H3464       H  0.50961209  0.37522733  0.86507489     0.11300
C3465       C  0.42212205  0.24348792  0.83877581    -0.14800
C3466       C  0.43033598  0.23256208  0.85998381     0.07300
C3467       C  0.44127668  0.21862966  0.85051911    -0.14800
C3468       C  0.44458706  0.21623259  0.82057800    -0.14800
C3469       C  0.43653831  0.22721124  0.79945695     0.07300
C3470       C  0.42488922  0.24051054  0.80859268    -0.14800
H3471       H  0.41367925  0.25436942  0.84552450     0.11300
H3472       H  0.44797316  0.21013776  0.86628708     0.11300
H3473       H  0.45344285  0.20572098  0.81384991     0.11300
H3474       H  0.41861930  0.24912024  0.79245933     0.11300
C3475       C  0.44081581  0.23060565  0.60059256    -0.14800
C3476       C  0.42691598  0.20558742  0.60976524     0.07300
C3477       C  0.41703408  0.18661104  0.58840234    -0.14800
C3478       C  0.42110271  0.19269307  0.55828399    -0.14800
C3479       C  0.43580947  0.21771130  0.54941020     0.07300
C3480       C  0.44550972  0.23655197  0.57075937    -0.14800
H3481       H  0.44891152  0.24558848  0.61655554     0.11300
H3482       H  0.40635700  0.16717636  0.59500151     0.11300
H3483       H  0.41341826  0.17792077  0.54202451     0.11300
H3484       H  0.45675968  0.25599344  0.56430917     0.11300
C3485       C  0.14435927  0.03768845  0.49736191    -0.14800
C3486       C  0.16275884  0.04758804  0.97501588     0.07300
C3487       C  0.16932669  0.03148666  0.96092451    -0.14800
C3488       C  0.16013289  0.00708272  0.97111226    -0.14800
C3489       C  0.14409773  0.99799602  0.49573841     0.07300
C3490       C  0.13531797  0.01318536  0.50782465    -0.14800
H3491       H  0.13858814  0.04955447  0.50823840     0.11300
H3492       H  0.18255319  0.03819909  0.94279392     0.11300
H3493       H  0.16655580  0.99562930  0.96051637     0.11300
H3494       H  0.12270718  0.00673850  0.52654114     0.11300
C3495       C  0.34226646  0.18903566  0.95821906    -0.14800
C3496       C  0.35595286  0.21526843  0.95795817     0.07300
C3497       C  0.34273426  0.22830564  0.95961327    -0.14800
C3498       C  0.31646115  0.21523189  0.96179788    -0.14800
C3499       C  0.30298176  0.18890969  0.96230143     0.07300
C3500       C  0.31638387  0.17615743  0.96030060    -0.14800
H3501       H  0.35154221  0.17818999  0.95677956     0.11300
H3502       H  0.35264740  0.24850512  0.95927250     0.11300
H3503       H  0.30676919  0.22566745  0.96328759     0.11300
H3504       H  0.30688795  0.15596004  0.96048377     0.11300
C3505       C  0.14128791  0.17810514  0.54170926    -0.14800
C3506       C  0.11766872  0.16975614  0.52924754     0.07300
C3507       C  0.10902620  0.15088354  0.50781143    -0.14800
C3508       C  0.12493877  0.14183410  0.99798320    -0.14800
C3509       C  0.14918059  0.15208916  0.50825008     0.07300
C3510       C  0.15674978  0.16934805  0.53149053    -0.14800
H3511       H  0.14834521  0.19243150  0.55852157     0.11300
H3512       H  0.09050257  0.14263183  0.99913179     0.11300
H3513       H  0.11814094  0.12750560  0.98120833     0.11300
H3514       H  0.17527421  0.17725028  0.54074888     0.11300
C3515       C  0.21171064  0.10530401  0.56948563    -0.14800
C3516       C  0.22737054  0.13007535  0.56031936     0.07300
C3517       C  0.23910744  0.14890972  0.58155914    -0.14800
C3518       C  0.23531892  0.14293559  0.61165598    -0.14800
C3519       C  0.21912398  0.11823060  0.62065807     0.07300
C3520       C  0.20739377  0.09949676  0.59938262    -0.14800
H3521       H  0.20217904  0.09052371  0.55350915     0.11300
H3522       H  0.25115448  0.16816379  0.57486801     0.11300
H3523       H  0.24452466  0.15760521  0.62784291     0.11300
H3524       H  0.19497849  0.08025467  0.60591974     0.11300
C3525       C  0.23612084  0.10178656  0.86146743    -0.14800
C3526       C  0.22104699  0.11149289  0.87069431     0.07300
C3527       C  0.20987771  0.11931061  0.84954273    -0.14800
C3528       C  0.21329230  0.11709202  0.81959369    -0.14800
C3529       C  0.22751642  0.10650052  0.81016051     0.07300
C3530       C  0.23903028  0.09892747  0.83127918    -0.14800
H3531       H  0.24497439  0.09576532  0.87755405     0.11300
H3532       H  0.19846450  0.12717839  0.85621754     0.11300
H3533       H  0.20407803  0.12293607  0.80379056     0.11300
H3534       H  0.25012253  0.09076632  0.82445015     0.11300
C3535       C  0.44187422  0.63401935  0.59418256    -0.14800
C3536       C  0.45071844  0.62334385  0.61484177     0.07300
C3537       C  0.47448971  0.63833917  0.62709332    -0.14800
C3538       C  0.48986725  0.66283958  0.61738175    -0.14800
C3539       C  0.48201445  0.67302090  0.59489147     0.07300
C3540       C  0.45744343  0.65866063  0.58419312    -0.14800
H3541       H  0.42366539  0.62283788  0.58432053     0.11300
H3542       H  0.48167650  0.63068760  0.64333574     0.11300
H3543       H  0.50851099  0.67330811  0.62636717     0.11300
H3544       H  0.45078903  0.66587336  0.56680370     0.11300
C3545       C  0.31728525  0.52836449  0.59370491    -0.14800
C3546       C  0.33198051  0.51900840  0.58166111     0.07300
C3547       C  0.32245409  0.50233972  0.55784782    -0.14800
C3548       C  0.29811121  0.49344668  0.54816199    -0.14800
C3549       C  0.28275221  0.50119123  0.56177211     0.07300
C3550       C  0.29282804  0.51955159  0.58373964    -0.14800
H3551       H  0.32402527  0.54115588  0.61213227     0.11300
H3552       H  0.33327922  0.49493519  0.54781362     0.11300
H3553       H  0.29080749  0.47946789  0.53096337     0.11300
H3554       H  0.28125868  0.52567425  0.59466550     0.11300
C3555       C  0.42369937  0.52107580  0.50692646    -0.14800
C3556       C  0.43091926  0.53979651  0.52838991     0.07300
C3557       C  0.44054541  0.56468921  0.51932652    -0.14800
C3558       C  0.44257814  0.57017797  0.98935597    -0.14800
C3559       C  0.43538836  0.55158860  0.96785711     0.07300
C3560       C  0.42611209  0.52668375  0.97669750    -0.14800
H3561       H  0.41613497  0.50174471  0.51344088     0.11300
H3562       H  0.44596054  0.57944444  0.53539387     0.11300
H3563       H  0.45001745  0.58955693  0.98301644     0.11300
H3564       H  0.42048267  0.51208609  0.96036740     0.11300
C3565       C  0.42569639  0.55265590  0.73937022    -0.14800
C3566       C  0.44440833  0.55977636  0.71790217     0.07300
C3567       C  0.46921371  0.56911651  0.72668746    -0.14800
C3568       C  0.47527045  0.57203527  0.75676325    -0.14800
C3569       C  0.45642072  0.56486059  0.77818016     0.07300
C3570       C  0.43160086  0.55492365  0.76919571    -0.14800
H3571       H  0.40640003  0.54518689  0.73304656     0.11300
H3572       H  0.48388752  0.57470881  0.71033749     0.11300
H3573       H  0.49454110  0.57981760  0.76328880     0.11300
H3574       H  0.41676347  0.54954412  0.78527751     0.11300
C3575       C  0.62652907  0.45014479  0.66437338    -0.14800
C3576       C  0.61634302  0.45882788  0.64286484     0.07300
C3577       C  0.63169564  0.48236860  0.62993021    -0.14800
C3578       C  0.65612673  0.49765992  0.63960182    -0.14800
C3579       C  0.66583986  0.49001927  0.66286431     0.07300
C3580       C  0.65105608  0.46566850  0.67441282    -0.14800
H3581       H  0.61503108  0.43213116  0.67481988     0.11300
H3582       H  0.62437705  0.48943555  0.61311821     0.11300
H3583       H  0.66689708  0.51612340  0.62994659     0.11300
H3584       H  0.65786571  0.45917027  0.69240831     0.11300
C3585       C  0.55763927  0.44908681  0.73843841    -0.14800
C3586       C  0.53289950  0.44014079  0.72972803     0.07300
C3587       C  0.51443394  0.43421215  0.75132339    -0.14800
C3588       C  0.52076438  0.43729931  0.78133195    -0.14800
C3589       C  0.54544028  0.44550320  0.78991758     0.07300
C3590       C  0.56377685  0.45146068  0.76822706    -0.14800
H3591       H  0.57213170  0.45353440  0.72219337     0.11300
H3592       H  0.49522276  0.42727113  0.74496898     0.11300
H3593       H  0.50637834  0.43271664  0.79778605     0.11300
H3594       H  0.58302996  0.45813983  0.77434380     0.11300
C3595       C  0.56144510  0.47768461  0.53097687    -0.14800
C3596       C  0.55286842  0.45280127  0.53942926     0.07300
C3597       C  0.54662993  0.43458516  0.51763590    -0.14800
C3598       C  0.54753280  0.44094441  0.98820104    -0.14800
C3599       C  0.55828507  0.46602543  0.97940818     0.07300
C3600       C  0.56455734  0.48433681  0.50098936    -0.14800
H3601       H  0.56627125  0.49200274  0.54752639     0.11300
H3602       H  0.53968482  0.41523441  0.52359060     0.11300
H3603       H  0.54172708  0.42620567  0.97198653     0.11300
H3604       H  0.57170094  0.50365021  0.49474748     0.11300
C3605       C  0.46034835  0.32593417  0.57654906    -0.14800
C3606       C  0.47111931  0.35141611  0.56989423     0.07300
C3607       C  0.47128904  0.35891345  0.54052833    -0.14800
C3608       C  0.46229819  0.34121936  0.51781802    -0.14800
C3609       C  0.45380941  0.31600460  0.52421433     0.07300
C3610       C  0.45197334  0.30836058  0.55382194    -0.14800
H3611       H  0.46058778  0.31987625  0.59899993     0.11300
H3612       H  0.48003028  0.37856037  0.53497171     0.11300
H3613       H  0.46432237  0.34754657  0.49507289     0.11300
H3614       H  0.44572760  0.28904169  0.55914890     0.11300
C3615       C  0.48538372  0.47946626  0.62182324    -0.14800
C3616       C  0.47324579  0.45424444  0.63040863     0.07300
C3617       C  0.44739331  0.44202911  0.63605995    -0.14800
C3618       C  0.43423750  0.45511679  0.63367410    -0.14800
C3619       C  0.44679569  0.48058776  0.62568787     0.07300
C3620       C  0.47246052  0.49235627  0.61955741    -0.14800
H3621       H  0.50516904  0.48953786  0.61698492     0.11300
H3622       H  0.43750405  0.42261916  0.64281970     0.11300
H3623       H  0.41445864  0.44548183  0.63846888     0.11300
H3624       H  0.48282873  0.51179990  0.61294109     0.11300
C3625       C  0.52138361  0.32469510  0.66426585    -0.14800
C3626       C  0.51234446  0.33952823  0.67670916     0.07300
C3627       C  0.49541045  0.32973188  0.70040735    -0.14800
C3628       C  0.48590680  0.30505709  0.70952973    -0.14800
C3629       C  0.49332717  0.28960951  0.69551833     0.07300
C3630       C  0.51197940  0.29988669  0.67370993    -0.14800
H3631       H  0.53435404  0.33163090  0.64590263     0.11300
H3632       H  0.48823602  0.34064428  0.71074680     0.11300
H3633       H  0.47179390  0.29764079  0.72669763     0.11300
H3634       H  0.51794278  0.28828466  0.66255853     0.11300
C3635       C  0.21235390  0.52054055  0.83107771    -0.14800
C3636       C  0.20313448  0.50017599  0.81170420     0.07300
C3637       C  0.17899483  0.49062811  0.80021760    -0.14800
C3638       C  0.16363680  0.49975310  0.80965367    -0.14800
C3639       C  0.17186343  0.51854880  0.83114676     0.07300
C3640       C  0.19679285  0.52960192  0.84083746    -0.14800
H3641       H  0.23089692  0.52826634  0.84023212     0.11300
H3642       H  0.17151563  0.47517714  0.78487462     0.11300
H3643       H  0.14472933  0.49093957  0.80138308     0.11300
H3644       H  0.20378399  0.54415506  0.85733926     0.11300
C3645       C  0.23286002  0.42544967  0.92020607    -0.14800
C3646       C  0.22228317  0.43405156  0.89900946     0.07300
C3647       C  0.20910086  0.44577131  0.90843056    -0.14800
C3648       C  0.20729295  0.44971767  0.93828770    -0.14800
C3649       C  0.21808713  0.44148563  0.95939758     0.07300
C3650       C  0.23042449  0.42883320  0.95036829    -0.14800
H3651       H  0.24313096  0.41641643  0.91347288     0.11300
H3652       H  0.20090755  0.45279231  0.89263339     0.11300
H3653       H  0.19757596  0.45934092  0.94493049     0.11300
H3654       H  0.23885953  0.42237432  0.96653241     0.11300
C3655       C  0.22920524  0.45251600  0.68822129    -0.14800
C3656       C  0.21011616  0.44283629  0.70943185     0.07300
C3657       C  0.18520292  0.42864760  0.70048644    -0.14800
C3658       C  0.17944390  0.42509292  0.67038604    -0.14800
C3659       C  0.19863211  0.43504926  0.64914080     0.07300
C3660       C  0.22354104  0.44842352  0.65837183    -0.14800
H3661       H  0.24856584  0.46324974  0.69478261     0.11300
H3662       H  0.17026928  0.42097859  0.71669142     0.11300
H3663       H  0.16010011  0.41476166  0.66370792     0.11300
H3664       H  0.23869048  0.45651626  0.64244491     0.11300
C3665       C  0.30138139  0.45705150  0.70678793    -0.14800
C3666       C  0.30889990  0.46158957  0.73644298     0.07300
C3667       C  0.33433608  0.47318890  0.74325527    -0.14800
C3668       C  0.35213548  0.48227821  0.72058871    -0.14800
C3669       C  0.34464899  0.47917513  0.69090654     0.07300
C3670       C  0.31918483  0.46547194  0.68411562    -0.14800
H3671       H  0.28182148  0.44852061  0.70117337     0.11300
H3672       H  0.34045216  0.47732545  0.76599293     0.11300
H3673       H  0.37171406  0.49325489  0.72620299     0.11300
H3674       H  0.31307963  0.46342203  0.66135373     0.11300
C3675       C  0.33657620  0.53875454  0.83537827    -0.14800
C3676       C  0.32268739  0.51377418  0.84528399     0.07300
C3677       C  0.33334675  0.50543689  0.86661396    -0.14800
C3678       C  0.35780969  0.52078358  0.87590188    -0.14800
C3679       C  0.37235834  0.54505785  0.86445243     0.07300
C3680       C  0.36123010  0.55434126  0.84501359    -0.14800
H3681       H  0.32896241  0.54578605  0.81890375     0.11300
H3682       H  0.32328163  0.48647667  0.87499888     0.11300
H3683       H  0.36574864  0.51321449  0.89125289     0.11300
H3684       H  0.37202790  0.57297376  0.83585447     0.11300
C3685       C  0.02378610  0.17638193  0.79476161    -0.14800
C3686       C  0.03919147  0.16839370  0.78172521     0.07300
C3687       C  0.02909638  0.14983219  0.75995767    -0.14800
C3688       C  0.00467959  0.14105524  0.74968909    -0.14800
C3689       C  0.98997494  0.15065083  0.76114119     0.07300
C3690       C  0.99950773  0.16757717  0.78471472    -0.14800
H3691       H  0.03102559  0.19051900  0.81178204     0.11300
H3692       H  0.04062833  0.14349695  0.74939495     0.11300
H3693       H  0.99798529  0.12806911  0.73144772     0.11300
H3694       H  0.98872399  0.17520403  0.79430986     0.11300
C3695       C  0.20665602  0.32179626  0.79377092    -0.14800
C3696       C  0.18042117  0.30834494  0.79253154     0.07300
C3697       C  0.16753577  0.32157715  0.79483969    -0.14800
C3698       C  0.18024352  0.34733657  0.79810024    -0.14800
C3699       C  0.20640250  0.36100558  0.79923405     0.07300
C3700       C  0.21956495  0.34796290  0.79708656    -0.14800
H3701       H  0.21713870  0.31216728  0.79204509     0.11300
H3702       H  0.14738192  0.31204612  0.79411826     0.11300
H3703       H  0.16932253  0.35651673  0.79976488     0.11300
H3704       H  0.23971825  0.35792462  0.79797917     0.11300
C3705       C  0.17013945  0.14805589  0.71273276    -0.14800
C3706       C  0.16171444  0.12427775  0.72507915     0.07300
C3707       C  0.14277835  0.11540882  0.74661341    -0.14800
C3708       C  0.13410623  0.13104465  0.75738080    -0.14800
C3709       C  0.14411425  0.15566759  0.74657062     0.07300
C3710       C  0.16140442  0.16346125  0.72318139    -0.14800
H3711       H  0.18450057  0.15527377  0.69582448     0.11300
H3712       H  0.13599288  0.09718006  0.75653073     0.11300
H3713       H  0.12073944  0.12439970  0.77538178     0.11300
H3714       H  0.16935097  0.18209687  0.71399347     0.11300
C3715       C  0.18140496  0.21386620  0.88482110    -0.14800
C3716       C  0.18467681  0.20983968  0.85505705     0.07300
C3717       C  0.19930703  0.19919505  0.84776186    -0.14800
C3718       C  0.20829648  0.19016024  0.87007155    -0.14800
C3719       C  0.20339726  0.19250399  0.89981689     0.07300
C3720       C  0.19107075  0.20554621  0.90712560    -0.14800
H3721       H  0.16986268  0.22171931  0.89074437     0.11300
H3722       H  0.20156385  0.19552276  0.82485054     0.11300
H3723       H  0.21733793  0.17970199  0.86414140     0.11300
H3724       H  0.18665856  0.20697898  0.93000766     0.11300
C3725       C  0.14185243  0.24527177  0.67250612    -0.14800
C3726       C  0.12277052  0.23364462  0.69369135     0.07300
C3727       C  0.09803580  0.21867839  0.68441340    -0.14800
C3728       C  0.09246480  0.21497881  0.65451614    -0.14800
C3729       C  0.11142461  0.22655664  0.63330701     0.07300
C3730       C  0.13614120  0.24204947  0.64237261    -0.14800
H3731       H  0.16108571  0.25683159  0.67925485     0.11300
H3732       H  0.08303038  0.20927058  0.70029725     0.11300
H3733       H  0.07320885  0.20315705  0.64792515     0.11300
H3734       H  0.15097429  0.25112617  0.62622775     0.11300
C3735       C  0.09298341  0.24263540  0.89183701    -0.14800
C3736       C  0.10412712  0.22867870  0.88334204     0.07300
C3737       C  0.11396199  0.21979119  0.90491565    -0.14800
C3738       C  0.11227729  0.22429920  0.93465146    -0.14800
C3739       C  0.10016175  0.23726369  0.94347149     0.07300
C3740       C  0.09062422  0.24656192  0.92184718    -0.14800
H3741       H  0.08541654  0.24974526  0.87536180     0.11300
H3742       H  0.12292452  0.20928118  0.89873575     0.11300
H3743       H  0.11961358  0.21671956  0.95083347     0.11300
H3744       H  0.08118888  0.25657111  0.92815357     0.11300
loop_ 
_geom_bond_atom_site_label_1 
_geom_bond_atom_site_label_2 
_geom_bond_distance 
_geom_bond_site_symmetry_2 
_ccdc_geom_bond_type 
Fe1          O17   2.044       .  S
Fe1           O7   2.059       .  S
Fe1          O14   2.046       .  S
Fe1           O6   2.048       .  S
Fe1          O12   1.957       .  S
Fe2           O5   2.065       .  S
Fe2           O9   2.083       .  S
Fe2          O13   2.081       .  S
Fe2          O18   2.075       .  S
Fe2          O12   1.968       .  S
Fe3          O21   2.080       .  S
Fe3           O8   2.055       .  S
Fe3          O15   2.088       .  S
Fe3           O4   2.080       .  S
Fe3          O12   1.957       .  S
O4           C11   1.276       .  A
O5           C19   1.270       .  A
O6           C11   1.270       .  A
O7           C10   1.263       .  A
O8           C20   1.270       .  A
O9           C22   1.278       .  A
C10          O15   1.268       .  A
C10        C1814   1.482       .  S
C11        C1864   1.468       .  S
O13          C16   1.266       .  A
O14          C16   1.262       .  A
C16        C1824   1.488       .  S
O17          C22   1.274       .  A
O18          C20   1.272       .  A
C19          O21   1.271       .  A
C19        C1837   1.491       .  S
C20        C1844   1.463       .  S
C22        C1854   1.469       .  S
Fe23         O39   2.044       .  S
Fe23         O29   2.059       .  S
Fe23         O36   2.047       .  S
Fe23         O28   2.049       .  S
Fe23         O34   1.957       .  S
Fe24         O27   2.061       .  S
Fe24         O31   2.088       .  S
Fe24         O35   2.080       .  S
Fe24         O40   2.080       .  S
Fe24         O34   1.967       .  S
Fe25         O43   2.076       .  S
Fe25         O30   2.061       .  S
Fe25         O37   2.088       .  S
Fe25         O26   2.071       .  S
Fe25         O34   1.960       .  S
O26          C33   1.275       .  A
O27          C41   1.269       .  A
O28          C33   1.271       .  A
O29          C32   1.264       .  A
O30          C42   1.272       .  A
O31          C44   1.279       .  A
C32          O37   1.269       .  A
C32        C1764   1.483       .  S
C33        C1784   1.464       .  S
O35          C38   1.265       .  A
O36          C38   1.262       .  A
C38        C1827   1.489       .  S
O39          C44   1.275       .  A
O40          C42   1.274       .  A
C41          O43   1.269       .  A
C41        C1804   1.489       .  S
C42        C1794   1.468       .  S
C44        C1774   1.471       .  S
Fe45         O61   2.052       .  S
Fe45         O51   2.046       .  S
Fe45         O58   2.059       .  S
Fe45         O50   2.047       .  S
Fe45         O56   1.962       .  S
Fe46         O49   2.060       .  S
Fe46         O53   2.074       .  S
Fe46         O57   2.090       .  S
Fe46         O62   2.073       .  S
Fe46         O56   1.964       .  S
Fe47         O65   2.081       .  S
Fe47         O52   2.065       .  S
Fe47         O59   2.083       .  S
Fe47         O48   2.084       .  S
Fe47         O56   1.975       .  S
O48          C55   1.277       .  A
O49          C63   1.271       .  A
O50          C55   1.273       .  A
O51          C54   1.263       .  A
O52          C64   1.270       .  A
O53          C66   1.275       .  A
C54          O59   1.266       .  A
C54        C1744   1.490       .  S
C55        C1714   1.467       .  S
O57          C60   1.269       .  A
O58          C60   1.264       .  A
C60        C1704   1.484       .  S
O61          C66   1.270       .  A
O62          C64   1.269       .  A
C63          O65   1.274       .  A
C63        C1734   1.466       .  S
C64        C1754   1.487       .  S
C66        C1724   1.468       .  S
Fe67         O83   2.048       .  S
Fe67         O73   2.057       .  S
Fe67         O80   2.046       .  S
Fe67         O72   2.052       .  S
Fe67         O78   1.956       .  S
Fe68         O71   2.065       .  S
Fe68         O75   2.091       .  S
Fe68         O79   2.087       .  S
Fe68         O84   2.083       .  S
Fe68         O78   1.971       .  S
Fe69         O87   2.069       .  S
Fe69         O74   2.059       .  S
Fe69         O81   2.087       .  S
Fe69         O70   2.072       .  S
Fe69         O78   1.959       .  S
O70          C77   1.275       .  A
O71          C85   1.270       .  A
O72          C77   1.272       .  A
O73          C76   1.263       .  A
O74          C86   1.271       .  A
O75          C88   1.279       .  A
C76          O81   1.268       .  A
C76        C1664   1.482       .  S
C77        C1694   1.467       .  S
O79          C82   1.266       .  A
O80          C82   1.262       .  A
C82        C1747   1.490       .  S
O83          C88   1.274       .  A
O84          C86   1.274       .  A
C85          O87   1.269       .  A
C85        C1674   1.486       .  S
C86        C1797   1.468       .  S
C88        C1684   1.472       .  S
Fe89         O95   2.059       .  S
Fe89        O102   2.049       .  S
Fe89         O94   2.047       .  S
Fe89       O1977   2.044       .  S
Fe89        O100   1.958       .  S
Fe90        O101   2.087       .  S
Fe90        O106   2.074       .  S
Fe90       O1965   2.070       .  S
Fe90       O1969   2.081       .  S
Fe90        O100   1.969       .  S
Fe91        O109   2.079       .  S
Fe91         O96   2.056       .  S
Fe91        O103   2.087       .  S
Fe91         O92   2.078       .  S
Fe91        O100   1.959       .  S
O92          C99   1.275       .  A
O93       Fe1962   2.072       .  S
O93        C1979   1.271       .  A
O94          C99   1.270       .  A
O95          C98   1.263       .  A
O96         C108   1.271       .  A
O97       Fe1962   2.083   1_554  S
O97         C110   1.279       .  A
C98         O103   1.268       .  A
C98        C1614   1.481       .  S
C99        C1654   1.463       .  S
O101        C104   1.267       .  A
O102        C104   1.263       .  A
C104       C1627   1.492       .  S
O105      Fe1961   2.045   1_554  S
O105        C110   1.274       .  A
O106        C108   1.272       .  A
C107        O109   1.270       .  A
C107       O1965   1.271       .  A
C107       C3509   1.493       .  S
C108       C1847   1.461       .  S
C110       C1644   1.466       .  S
Fe111       O127   2.043       .  S
Fe111       O117   2.065       .  S
Fe111       O124   2.053       .  S
Fe111       O116   2.048       .  S
Fe111       O122   1.959       .  S
Fe112       O115   2.063       .  S
Fe112       O119   2.092       .  S
Fe112       O123   2.084       .  S
Fe112       O128   2.088       .  S
Fe112       O122   1.967       .  S
Fe113       O131   2.081       .  S
Fe113       O125   2.088       .  S
Fe113      O1990   2.057       .  S
Fe113      O1986   2.080       .  S
Fe113       O122   1.959       .  S
O114      Fe1985   2.076   1_554  S
O114        C121   1.275       .  A
O115        C129   1.269       .  A
O116       C1993   1.270       .  A
O117        C120   1.265       .  A
O118      Fe1985   2.056   1_554  S
O118       C2002   1.271       .  A
O119        C132   1.280       .  A
C120        O125   1.268       .  A
C120       C1574   1.482       .  S
C121       O1988   1.270   1_554  A
C121       C1607   1.465       .  S
O123        C126   1.266       .  A
O124        C126   1.263       .  A
C126       C1624   1.493       .  S
O127        C132   1.274       .  A
O128        C130   1.276       .  A
C129        O131   1.270       .  A
C129       C1584   1.492       .  S
C130       O1990   1.271       .  A
C130       C3609   1.472       .  S
C132       C1594   1.472       .  S
Fe133       O149   2.065       .  S
Fe133       O139   2.039       .  S
Fe133       O146   2.049       .  S
Fe133       O138   2.055       .  S
Fe133       O144   1.952       .  S
Fe134       O137   2.080       .  S
Fe134       O141   2.087       .  S
Fe134       O145   2.079       .  S
Fe134       O150   2.057       .  S
Fe134       O144   1.950       .  S
Fe135       O153   2.067       .  S
Fe135       O140   2.079       .  S
Fe135       O147   2.093       .  S
Fe135       O136   2.083       .  S
Fe135       O144   1.958       .  S
O136        C143   1.265       .  A
O137        C151   1.270       .  A
O138        C143   1.264       .  A
O139        C142   1.274       .  A
O140        C152   1.274       .  A
O141        C154   1.269       .  A
C142        O147   1.280       .  A
C142       C1544   1.467       .  S
C143       C1534   1.486       .  S
O145        C148   1.276       .  A
O146        C148   1.271       .  A
C148       C1554   1.463       .  S
O149        C154   1.265       .  A
O150        C152   1.271       .  A
C151        O153   1.270       .  A
C151       C1577   1.491       .  S
C152       C1564   1.464       .  S
C154       C1524   1.484       .  S
Fe155       O171   2.047       .  S
Fe155       O161   2.047       .  S
Fe155       O168   2.046       .  S
Fe155       O160   2.045       .  S
Fe155       O166   1.961       .  S
Fe156       O159   2.078       .  S
Fe156       O163   2.092       .  S
Fe156       O167   2.077       .  S
Fe156       O172   2.057       .  S
Fe156       O166   1.969       .  S
Fe157       O175   2.062       .  S
Fe157       O162   2.074       .  S
Fe157       O169   2.077       .  S
Fe157       O158   2.081       .  S
Fe157       O166   1.977       .  S
O158        C165   1.265       .  A
O159        C173   1.270       .  A
O160        C165   1.262       .  A
O161        C164   1.272       .  A
O162        C174   1.272       .  A
O163        C176   1.269       .  A
C164        O169   1.276       .  A
C164       C1484   1.466       .  S
C165       C1537   1.485       .  S
O167        C170   1.274       .  A
O168        C170   1.269       .  A
C170       C1494   1.465       .  S
O171        C176   1.263       .  A
O172        C174   1.271       .  A
C173        O175   1.269       .  A
C173       C1514   1.489       .  S
C174       C1504   1.462       .  S
C176       C1474   1.485       .  S
Fe177       O193   2.059       .  S
Fe177       O183   2.046       .  S
Fe177       O190   2.048       .  S
Fe177       O182   2.048       .  S
Fe177       O188   1.956       .  S
Fe178       O181   2.067       .  S
Fe178       O185   2.086       .  S
Fe178       O189   2.072       .  S
Fe178       O194   2.056       .  S
Fe178       O188   1.963       .  S
Fe179       O197   2.063       .  S
Fe179       O184   2.082       .  S
Fe179       O191   2.086       .  S
Fe179       O180   2.086       .  S
Fe179       O188   1.971       .  S
O180        C187   1.266       .  A
O181        C195   1.267       .  A
O182        C187   1.262       .  A
O183        C186   1.275       .  A
O184        C196   1.274       .  A
O185        C198   1.268       .  A
C186        O191   1.279       .  A
C186       C1657   1.472       .  S
C187       C1457   1.492       .  S
O189        C192   1.274       .  A
O190        C192   1.271       .  A
C192       C1647   1.465       .  S
O193        C198   1.264       .  A
O194        C196   1.271       .  A
C195        O197   1.269       .  A
C195       C1464   1.485       .  S
C196       C1444   1.468       .  S
C198       C1834   1.483       .  S
Fe199       O215   2.062       .  S
Fe199       O205   2.046       .  S
Fe199       O212   2.050       .  S
Fe199       O204   2.051       .  S
Fe199       O210   1.957       .  S
Fe200       O203   2.070       .  S
Fe200       O207   2.081       .  S
Fe200       O211   2.074       .  S
Fe200       O216   2.050       .  S
Fe200       O210   1.959       .  S
Fe201       O219   2.067       .  S
Fe201       O206   2.081       .  S
Fe201       O213   2.085       .  S
Fe201       O202   2.086       .  S
Fe201       O210   1.970       .  S
O202        C209   1.267       .  A
O203        C217   1.268       .  A
O204        C209   1.263       .  A
O205        C208   1.274       .  A
O206        C218   1.274       .  A
O207        C220   1.267       .  A
C208        O213   1.278       .  A
C208       C1604   1.470       .  S
C209       C1454   1.492       .  S
O211        C214   1.274       .  A
O212        C214   1.270       .  A
C214       C1597   1.463       .  S
O215        C220   1.265       .  A
O216        C218   1.270       .  A
C217        O219   1.270       .  A
C217       C1434   1.488       .  S
C218       C1567   1.463       .  S
C220       C1757   1.479       .  S
Fe221       O237   2.058       .  S
Fe221       O234   2.051       .  S
Fe221       O226   2.052       .  S
Fe221      O2099   2.049   1_554  S
Fe221       O232   1.959       .  S
Fe222       O225   2.072       .  S
Fe222       O229   2.083       .  S
Fe222       O233   2.074       .  S
Fe222       O238   2.057       .  S
Fe222       O232   1.961       .  S
Fe223       O241   2.071       .  S
Fe223       O228   2.076       .  S
Fe223       O224   2.085       .  S
Fe223      O2107   2.079   1_554  S
Fe223       O232   1.969       .  S
O224        C231   1.267       .  A
O225        C239   1.269       .  A
O226        C231   1.263       .  A
O227      Fe2093   2.048       .  S
O227        C230   1.274       .  A
O228        C240   1.272       .  A
O229        C242   1.267       .  A
C230        O235   1.277       .  A
C230       C1414   1.468       .  S
C231       C1404   1.492       .  S
O233        C236   1.275       .  A
O234        C236   1.271       .  A
O235      Fe2095   2.080       .  S
C236       C1424   1.471       .  S
O237        C242   1.264       .  A
O238        C240   1.270       .  A
C239        O241   1.271       .  A
C239       C1617   1.489   1_554  S
C240       C1447   1.463       .  S
C242       C1394   1.478       .  S
Fe243       O259   2.055       .  S
Fe243       O249   2.045       .  S
Fe243       O256   2.046       .  S
Fe243       O248   2.047       .  S
Fe243       O254   1.957       .  S
Fe244       O247   2.071       .  S
Fe244       O251   2.083       .  S
Fe244       O260   2.053       .  S
Fe244      O2127   2.070   1_554  S
Fe244       O254   1.963       .  S
Fe245       O263   2.072       .  S
Fe245       O250   2.079       .  S
Fe245       O257   2.085       .  S
Fe245       O246   2.088       .  S
Fe245       O254   1.967       .  S
O246        C253   1.267       .  A
O247        C261   1.268       .  A
O248        C253   1.262       .  A
O249        C252   1.275       .  A
O250        C262   1.274       .  A
O251        C264   1.268       .  A
C252        O257   1.279       .  A
C252       C1374   1.470       .  S
C253       C1407   1.493       .  S
O255      Fe2116   2.072       .  S
O255        C258   1.274       .  A
O256       C2130   1.270   1_554  A
C258       O2128   1.269       .  A
C258       C1384   1.463       .  S
O259        C264   1.264       .  A
O260        C262   1.270       .  A
C261        O263   1.271       .  A
C261       C1367   1.490       .  S
C262       C3379   1.463   1_554  S
C264       C1354   1.479       .  S
Fe265       O281   2.041       .  S
Fe265       O271   2.066       .  S
Fe265       O278   2.055       .  S
Fe265       O270   2.047       .  S
Fe265       O276   1.952       .  S
Fe266       O269   2.066       .  S
Fe266       O273   2.085       .  S
Fe266       O277   2.080       .  S
Fe266       O282   2.081       .  S
Fe266       O276   1.961       .  S
Fe267       O285   2.075       .  S
Fe267       O272   2.051       .  S
Fe267       O279   2.082       .  S
Fe267       O268   2.076       .  S
Fe267       O276   1.951       .  S
O268        C275   1.275       .  A
O269        C283   1.270       .  A
O270        C275   1.270       .  A
O271        C274   1.265       .  A
O272        C284   1.270       .  A
O273        C286   1.278       .  A
C274        O279   1.268       .  A
C274       C1517   1.481       .  S
C275       C1377   1.461       .  S
O277        C280   1.266       .  A
O278        C280   1.264       .  A
C280       C1324   1.489       .  S
O281        C286   1.273       .  A
O282        C284   1.273       .  A
C283        O285   1.270       .  A
C283       C1334   1.488       .  S
C284       C1344   1.464       .  S
C286       C1387   1.465       .  S
Fe287       O303   2.042       .  S
Fe287       O293   2.056       .  S
Fe287       O300   2.044       .  S
Fe287       O292   2.047       .  S
Fe287       O298   1.953       .  S
Fe288       O291   2.065       .  S
Fe288       O295   2.093       .  S
Fe288       O299   2.085       .  S
Fe288       O304   2.088       .  S
Fe288       O298   1.967       .  S
Fe289       O307   2.066       .  S
Fe289       O294   2.053       .  S
Fe289       O301   2.079       .  S
Fe289       O290   2.070       .  S
Fe289       O298   1.957       .  S
O290        C297   1.274       .  A
O291        C305   1.270       .  A
O292        C297   1.270       .  A
O293        C296   1.263       .  A
O294        C306   1.270       .  A
O295        C308   1.279       .  A
C296        O301   1.266       .  A
C296       C1467   1.477       .  S
C297       C1417   1.461       .  S
O299        C302   1.267       .  A
O300        C302   1.262       .  A
C302       C1327   1.488       .  S
O303        C308   1.274       .  A
O304        C306   1.276       .  A
C305        O307   1.268       .  A
C305       C1314   1.484   1_455  S
C306       C1304   1.469       .  S
C308       C1427   1.467       .  S
Fe309       O325   2.047       .  S
Fe309       O315   2.059       .  S
Fe309       O322   2.049       .  S
Fe309       O314   2.052       .  S
Fe309       O320   1.956       .  S
Fe310       O313   2.073       .  S
Fe310       O317   2.085       .  S
Fe310       O321   2.091       .  S
Fe310       O326   2.086       .  S
Fe310       O320   1.967       .  S
Fe311       O329   2.064       .  S
Fe311       O316   2.058       .  S
Fe311       O323   2.082       .  S
Fe311       O312   2.066       .  S
Fe311       O320   1.961       .  S
O312        C319   1.273       .  A
O313        C327   1.271       .  A
O314        C319   1.271       .  A
O315        C318   1.264       .  A
O316        C328   1.272       .  A
O317        C330   1.280       .  A
C318        O323   1.267       .  A
C318       C1244   1.480       .  S
C319       C1274   1.466       .  S
O321        C324   1.268       .  A
O322        C324   1.262       .  A
C324       C1284   1.495       .  S
O325        C330   1.276       .  A
O326        C328   1.276       .  A
C327        O329   1.267       .  A
C327       C1294   1.488       .  S
C328       C1254   1.470       .  S
C330       C1264   1.472       .  S
Fe331       O347   2.050       .  S
Fe331       O337   2.059       .  S
Fe331       O344   2.054       .  S
Fe331       O336   2.049       .  S
Fe331       O342   1.960       .  S
Fe332       O335   2.067       .  S
Fe332       O339   2.078       .  S
Fe332       O343   2.085       .  S
Fe332       O348   2.075       .  S
Fe332       O342   1.972       .  S
Fe333       O351   2.067       .  S
Fe333       O338   2.060       .  S
Fe333       O345   2.084       .  S
Fe333       O334   2.068       .  S
Fe333       O342   1.965       .  S
O334        C341   1.274       .  A
O335        C349   1.270       .  A
O336        C341   1.271       .  A
O337        C340   1.264       .  A
O338        C350   1.271       .  A
O339        C352   1.277       .  A
C340        O345   1.267       .  A
C340       C1214   1.480       .  S
C341       C1234   1.465       .  S
O343        C346   1.267       .  A
O344        C346   1.263       .  A
C346       C1287   1.494       .  S
O347        C352   1.274       .  A
O348        C350   1.272       .  A
C349        O351   1.267       .  A
C349       C1357   1.486       .  S
C350       C1347   1.464       .  S
C352       C1224   1.465       .  S
Fe353       O369   2.037       .  S
Fe353       O359   2.061       .  S
Fe353       O366   2.045       .  S
Fe353       O358   2.042       .  S
Fe353       O364   1.952       .  S
Fe354       O357   2.071       .  S
Fe354       O361   2.096       .  S
Fe354       O365   2.093       .  S
Fe354       O370   2.088       .  S
Fe354       O364   1.962       .  S
Fe355       O373   2.076       .  S
Fe355       O367   2.091       .  S
Fe355      O2232   2.058       .  S
Fe355      O2228   2.078       .  S
Fe355       O364   1.953       .  S
O356      Fe2227   2.079   1_554  S
O356        C363   1.276       .  A
O357        C371   1.272       .  A
O358       C2235   1.269       .  A
O359        C362   1.264       .  A
O360      Fe2227   2.058   1_554  S
O360       C2244   1.270   1_554  A
O361        C374   1.281       .  A
C362        O367   1.269       .  A
C362       C1164   1.484       .  S
C363       O2230   1.269   1_554  A
C363       C1207   1.460       .  S
O365        C368   1.268       .  A
O366        C368   1.262       .  A
C368       C1174   1.493       .  S
O369        C374   1.273       .  A
O370        C372   1.275       .  A
C371        O373   1.270       .  A
C371       C1184   1.490       .  S
C372       O2232   1.271       .  A
C372       C3129   1.469       .  S
C374       C1194   1.472       .  S
Fe375       O381   2.065       .  S
Fe375       O388   2.052       .  S
Fe375       O380   2.049       .  S
Fe375      O2263   2.044       .  S
Fe375       O386   1.955       .  S
Fe376       O387   2.085       .  S
Fe376       O392   2.087       .  S
Fe376      O2251   2.066       .  S
Fe376      O2255   2.090       .  S
Fe376       O386   1.967       .  S
Fe377       O395   2.068       .  S
Fe377       O382   2.055       .  S
Fe377       O389   2.080       .  S
Fe377       O378   2.073       .  S
Fe377       O386   1.957       .  S
O378        C385   1.274       .  A
O379      Fe2248   2.065   1_554  S
O379       C2265   1.270   1_554  A
O380        C385   1.270       .  A
O381        C384   1.266       .  A
O382        C394   1.270       .  A
O383      Fe2248   2.091   1_554  S
O383        C396   1.279       .  A
C384        O389   1.267       .  A
C384       C1134   1.479       .  S
C385       C1157   1.465       .  S
O387        C390   1.267       .  A
O388        C390   1.264       .  A
C390       C1177   1.492       .  S
O391      Fe2247   2.043   1_554  S
O391        C396   1.273       .  A
O392        C394   1.275       .  A
C393        O395   1.268       .  A
C393       O2251   1.270       .  A
C393       C3269   1.486       .  S
C394       C1307   1.468       .  S
C396       C1144   1.473       .  S
Fe397       O413   2.051       .  S
Fe397       O403   2.041       .  S
Fe397       O410   2.046       .  S
Fe397       O402   2.045       .  S
Fe397       O408   1.953       .  S
Fe398       O401   2.076       .  S
Fe398       O405   2.082       .  S
Fe398       O409   2.080       .  S
Fe398       O414   2.054       .  S
Fe398       O408   1.954       .  S
Fe399       O417   2.063       .  S
Fe399       O404   2.085       .  S
Fe399       O411   2.092       .  S
Fe399       O400   2.080       .  S
Fe399       O408   1.963       .  S
O400        C407   1.266       .  A
O401        C415   1.271       .  A
O402        C407   1.262       .  A
O403        C406   1.273       .  A
O404        C416   1.274       .  A
O405        C418   1.266       .  A
C406        O411   1.279       .  A
C406       C1154   1.470       .  S
C407       C1114   1.486       .  S
O409        C412   1.277       .  A
O410        C412   1.271       .  A
C412       C1147   1.464       .  S
O413        C418   1.262       .  A
O414        C416   1.269       .  A
C415        O417   1.270       .  A
C415       C1124   1.488       .  S
C416       C1104   1.468       .  S
C418       C1317   1.476       .  S
Fe419       O435   2.056       .  S
Fe419       O425   2.042       .  S
Fe419       O432   2.046       .  S
Fe419       O424   2.046       .  S
Fe419       O430   1.959       .  S
Fe420       O423   2.081       .  S
Fe420       O427   2.086       .  S
Fe420       O431   2.078       .  S
Fe420       O436   2.055       .  S
Fe420       O430   1.958       .  S
Fe421       O439   2.068       .  S
Fe421       O426   2.082       .  S
Fe421       O433   2.086       .  S
Fe421       O422   2.079       .  S
Fe421       O430   1.967       .  S
O422        C429   1.266       .  A
O423        C437   1.271       .  A
O424        C429   1.263       .  A
O425        C428   1.273       .  A
O426        C438   1.273       .  A
O427        C440   1.269       .  A
C428        O433   1.278       .  A
C428       C1204   1.471       .  S
C429       C1117   1.487       .  S
O431        C434   1.275       .  A
O432        C434   1.269       .  A
C434       C1197   1.465       .  S
O435        C440   1.264       .  A
O436        C438   1.270       .  A
C437        O439   1.271       .  A
C437       C1707   1.493       .  S
C438       C1094   1.465       .  S
C440       C1297   1.479       .  S
Fe441       O457   2.060       .  S
Fe441       O447   2.040       .  S
Fe441       O454   2.048       .  S
Fe441       O446   2.043       .  S
Fe441       O452   1.954       .  S
Fe442       O445   2.078       .  S
Fe442       O449   2.090       .  S
Fe442       O453   2.078       .  S
Fe442       O458   2.057       .  S
Fe442       O452   1.958       .  S
Fe443       O461   2.069       .  S
Fe443       O448   2.085       .  S
Fe443       O455   2.092       .  S
Fe443       O444   2.089       .  S
Fe443       O452   1.970       .  S
O444        C451   1.267       .  A
O445        C459   1.269       .  A
O446        C451   1.262       .  A
O447        C450   1.273       .  A
O448        C460   1.275       .  A
O449        C462   1.269       .  A
C450        O455   1.280       .  A
C450       C1727   1.468       .  S
C451       C1087   1.492       .  S
O453        C456   1.275       .  A
O454        C456   1.269       .  A
C456       C1717   1.467       .  S
O457        C462   1.264       .  A
O458        C460   1.272       .  A
C459        O461   1.270       .  A
C459       C1167   1.492       .  S
C460       C1097   1.468       .  S
C462       C1587   1.484       .  S
Fe463       O479   2.055       .  S
Fe463       O469   2.044       .  S
Fe463       O476   2.051       .  S
Fe463       O468   2.046       .  S
Fe463       O474   1.953       .  S
Fe464       O467   2.080       .  S
Fe464       O471   2.088       .  S
Fe464       O475   2.081       .  S
Fe464       O480   2.055       .  S
Fe464       O474   1.960       .  S
Fe465       O483   2.064       .  S
Fe465       O470   2.078       .  S
Fe465       O477   2.087       .  S
Fe465       O466   2.085       .  S
Fe465       O474   1.969       .  S
O466        C473   1.266       .  A
O467        C481   1.270       .  A
O468        C473   1.262       .  A
O469        C472   1.274       .  A
O470        C482   1.274       .  A
O471        C484   1.268       .  A
C472        O477   1.279       .  A
C472       C1697   1.468       .  S
C473       C1084   1.491       .  S
O475        C478   1.276       .  A
O476        C478   1.271       .  A
C478       C1687   1.469       .  S
O479        C484   1.264       .  A
O480        C482   1.271       .  A
C481        O483   1.270       .  A
C481       C1074   1.491       .  S
C482       C1064   1.464       .  S
C484       C1807   1.484       .  S
Fe485       O501   2.060       .  S
Fe485       O491   2.044       .  S
Fe485       O498   2.046       .  S
Fe485       O490   2.052       .  S
Fe485       O496   1.957       .  S
Fe486       O489   2.074       .  S
Fe486       O493   2.085       .  S
Fe486       O502   2.053       .  S
Fe486      O2369   2.078   1_554  S
Fe486       O496   1.959       .  S
Fe487       O505   2.069       .  S
Fe487       O492   2.079       .  S
Fe487       O499   2.086       .  S
Fe487       O488   2.085       .  S
Fe487       O496   1.968       .  S
O488        C495   1.266       .  A
O489        C503   1.269       .  A
O490        C495   1.263       .  A
O491        C494   1.274       .  A
O492        C504   1.274       .  A
O493        C506   1.268       .  A
C494        O499   1.279       .  A
C494       C1044   1.468       .  S
C495       C1037   1.493       .  S
O497      Fe2358   2.078       .  S
O497        C500   1.275       .  A
O498       C2372   1.270   1_554  A
C500       O2370   1.270       .  A
C500       C1054   1.464       .  S
O501        C506   1.264       .  A
O502        C504   1.271       .  A
C503        O505   1.270       .  A
C503       C1667   1.491       .  S
C504       C2939   1.463   1_554  S
C506       C1024   1.480       .  S
Fe507       O523   2.066       .  S
Fe507       O520   2.047       .  S
Fe507       O512   2.052       .  S
Fe507      O2385   2.045   1_554  S
Fe507       O518   1.955       .  S
Fe508       O511   2.073       .  S
Fe508       O515   2.085       .  S
Fe508       O519   2.076       .  S
Fe508       O524   2.056       .  S
Fe508       O518   1.956       .  S
Fe509       O527   2.065       .  S
Fe509       O514   2.086       .  S
Fe509       O510   2.086       .  S
Fe509      O2393   2.089   1_554  S
Fe509       O518   1.964       .  S
O510        C517   1.267       .  A
O511        C525   1.269       .  A
O512        C517   1.263       .  A
O513      Fe2379   2.041       .  S
O513        C516   1.274       .  A
O514        C526   1.275       .  A
O515        C528   1.267       .  A
C516        O521   1.280       .  A
C516       C1004   1.465       .  S
C517       C1034   1.492       .  S
O519        C522   1.276       .  A
O520        C522   1.271       .  A
O521      Fe2381   2.089       .  S
C522       C1014   1.465       .  S
O523        C528   1.264       .  A
O524        C526   1.270       .  A
C525        O527   1.270       .  A
C525       C1137   1.487       .  S
C526       C1107   1.468       .  S
C528        C994   1.483       .  S
Fe529       O545   2.054       .  S
Fe529       O535   2.046       .  S
Fe529       O542   2.044       .  S
Fe529       O534   2.049       .  S
Fe529       O540   1.961       .  S
Fe530       O533   2.075       .  S
Fe530       O537   2.088       .  S
Fe530       O541   2.070       .  S
Fe530       O546   2.057       .  S
Fe530       O540   1.965       .  S
Fe531       O549   2.072       .  S
Fe531       O536   2.077       .  S
Fe531       O543   2.081       .  S
Fe531       O532   2.084       .  S
Fe531       O540   1.973       .  S
O532        C539   1.267       .  A
O533        C547   1.270       .  A
O534        C539   1.263       .  A
O535        C538   1.273       .  A
O536        C548   1.272       .  A
O537        C550   1.269       .  A
C538        O543   1.277       .  A
C538        C964   1.464       .  S
C539        C954   1.491       .  S
O541        C544   1.274       .  A
O542        C544   1.269       .  A
C544        C974   1.460       .  S
O545        C550   1.263       .  A
O546        C548   1.270       .  A
C547        O549   1.272       .  A
C547       C1817   1.491       .  S
C548        C984   1.465       .  S
C550        C944   1.481       .  S
Fe551       O567   2.060       .  S
Fe551       O557   2.047       .  S
Fe551       O564   2.053       .  S
Fe551       O556   2.049       .  S
Fe551       O562   1.955       .  S
Fe552       O555   2.072       .  S
Fe552       O559   2.087       .  S
Fe552       O563   2.074       .  S
Fe552       O568   2.059       .  S
Fe552       O562   1.957       .  S
Fe553       O571   2.063       .  S
Fe553       O558   2.085       .  S
Fe553       O565   2.089       .  S
Fe553       O554   2.087       .  S
Fe553       O562   1.966       .  S
O554        C561   1.266       .  A
O555        C569   1.269       .  A
O556        C561   1.262       .  A
O557        C560   1.276       .  A
O558        C570   1.275       .  A
O559        C572   1.267       .  A
C560        O565   1.280       .  A
C560        C927   1.472       .  S
C561        C957   1.492       .  S
O563        C566   1.276       .  A
O564        C566   1.272       .  A
C566        C934   1.465       .  S
O567        C572   1.263       .  A
O568        C570   1.271       .  A
C569        O571   1.270       .  A
C569       C1247   1.486       .  S
C570        C914   1.470       .  S
C572        C904   1.484       .  S
Fe573       O589   2.051       .  S
Fe573       O586   2.047       .  S
Fe573       O578   2.042       .  S
Fe573      O2451   2.045   1_554  S
Fe573       O584   1.962       .  S
Fe574       O577   2.071       .  S
Fe574       O581   2.097       .  S
Fe574       O585   2.070       .  S
Fe574       O590   2.061       .  S
Fe574       O584   1.967       .  S
Fe575       O593   2.071       .  S
Fe575       O580   2.076       .  S
Fe575       O576   2.086       .  S
Fe575      O2459   2.084   1_554  S
Fe575       O584   1.977       .  S
O576        C583   1.266       .  A
O577        C591   1.269       .  A
O578        C583   1.261       .  A
O579      Fe2445   2.042       .  S
O579        C582   1.274       .  A
O580        C592   1.272       .  A
O581        C594   1.270       .  A
C582        O587   1.280       .  A
C582       C1867   1.471       .  S
C583        C884   1.490       .  S
O585        C588   1.273       .  A
O586        C588   1.269       .  A
O587      Fe2447   2.093       .  S
C588       C1857   1.464       .  S
O589        C594   1.263       .  A
O590        C592   1.271       .  A
C591        O593   1.271       .  A
C591        C894   1.489   1_454  S
C592        C987   1.466       .  S
C594       C1634   1.487       .  S
Fe595       O611   2.057       .  S
Fe595       O601   2.043       .  S
Fe595       O608   2.048       .  S
Fe595       O600   2.050       .  S
Fe595       O606   1.956       .  S
Fe596       O599   2.077       .  S
Fe596       O603   2.082       .  S
Fe596       O612   2.055       .  S
Fe596      O2479   2.077   1_554  S
Fe596       O606   1.956       .  S
Fe597       O615   2.066       .  S
Fe597       O602   2.084       .  S
Fe597       O609   2.087       .  S
Fe597       O598   2.084       .  S
Fe597       O606   1.964       .  S
O598        C605   1.267       .  A
O599        C613   1.270       .  A
O600        C605   1.263       .  A
O601        C604   1.274       .  A
O602        C614   1.274       .  A
O603        C616   1.267       .  A
C604        O609   1.279       .  A
C604       C1787   1.467       .  S
C605        C887   1.490       .  S
O607      Fe2468   2.074       .  S
O607        C610   1.275       .  A
O608       C2482   1.271   1_554  A
C610       O2480   1.269       .  A
C610       C1777   1.463       .  S
O611        C616   1.263       .  A
O612        C614   1.270       .  A
C613        O615   1.271       .  A
C613       C1217   1.489       .  S
C614       C2746   1.468   1_554  S
C616       C1677   1.477       .  S
Fe617       O633   2.060       .  S
Fe617       O623   2.042       .  S
Fe617       O630   2.047       .  S
Fe617       O622   2.050       .  S
Fe617       O628   1.956       .  S
Fe618       O621   2.070       .  S
Fe618       O625   2.087       .  S
Fe618       O629   2.074       .  S
Fe618       O634   2.060       .  S
Fe618       O628   1.955       .  S
Fe619       O637   2.067       .  S
Fe619       O624   2.081       .  S
Fe619       O631   2.085       .  S
Fe619       O620   2.085       .  S
Fe619       O628   1.966       .  S
O620        C627   1.267       .  A
O621        C635   1.269       .  A
O622        C627   1.263       .  A
O623        C626   1.273       .  A
O624        C636   1.273       .  A
O625        C638   1.267       .  A
C626        O631   1.277       .  A
C626       C1277   1.464       .  S
C627        C854   1.490       .  S
O629        C632   1.276       .  A
O630        C632   1.271       .  A
C632       C1267   1.460       .  S
O633        C638   1.263       .  A
O634        C636   1.270       .  A
C635        O637   1.271       .  A
C635        C864   1.487       .  S
C636        C917   1.468       .  S
C638       C1187   1.480       .  S
Fe639       O655   2.065       .  S
Fe639       O645   2.037       .  S
Fe639       O652   2.042       .  S
Fe639       O644   2.055       .  S
Fe639       O650   1.951       .  S
Fe640       O643   2.078       .  S
Fe640       O647   2.085       .  S
Fe640       O651   2.080       .  S
Fe640       O656   2.056       .  S
Fe640       O650   1.948       .  S
Fe641       O659   2.066       .  S
Fe641       O646   2.086       .  S
Fe641       O653   2.091       .  S
Fe641       O642   2.082       .  S
Fe641       O650   1.957       .  S
O642        C649   1.266       .  A
O643        C657   1.270       .  A
O644        C649   1.264       .  A
O645        C648   1.274       .  A
O646        C658   1.275       .  A
O647        C660   1.268       .  A
C648        O653   1.280       .  A
C648       C1237   1.466       .  S
C649        C857   1.491       .  S
O651        C654   1.277       .  A
O652        C654   1.271       .  A
C654       C1227   1.462       .  S
O655        C660   1.264       .  A
O656        C658   1.271       .  A
C657        O659   1.270       .  A
C657       C1767   1.491       .  S
C658        C877   1.468       .  S
C660       C1337   1.480       .  S
Fe661       O677   2.044       .  S
Fe661       O667   2.058       .  S
Fe661       O674   2.045       .  S
Fe661       O666   2.047       .  S
Fe661       O672   1.953       .  S
Fe662       O665   2.072       .  S
Fe662       O669   2.086       .  S
Fe662       O673   2.087       .  S
Fe662       O678   2.084       .  S
Fe662       O672   1.968       .  S
Fe663       O681   2.069       .  S
Fe663       O668   2.051       .  S
Fe663       O675   2.080       .  S
Fe663       O664   2.073       .  S
Fe663       O672   1.957       .  S
O664        C671   1.275       .  A
O665        C679   1.271       .  A
O666        C671   1.270       .  A
O667        C670   1.264       .  A
O668        C680   1.270       .  A
O669        C682   1.279       .  A
C670        O675   1.267       .  A
C670       C1127   1.480       .  S
C671       C1007   1.466       .  S
O673        C676   1.267       .  A
O674        C676   1.262       .  A
C676        C844   1.491       .  S
O677        C682   1.274       .  A
O678        C680   1.274       .  A
C679        O681   1.269       .  A
C679        C947   1.489       .  S
C680        C834   1.465       .  S
C682       C1017   1.467       .  S
Fe683       O699   2.047       .  S
Fe683       O689   2.056       .  S
Fe683       O696   2.051       .  S
Fe683       O688   2.048       .  S
Fe683       O694   1.955       .  S
Fe684       O687   2.059       .  S
Fe684       O691   2.085       .  S
Fe684       O695   2.079       .  S
Fe684       O700   2.075       .  S
Fe684       O694   1.964       .  S
Fe685       O703   2.080       .  S
Fe685       O690   2.059       .  S
Fe685       O697   2.089       .  S
Fe685       O686   2.078       .  S
Fe685       O694   1.960       .  S
O686        C693   1.277       .  A
O687        C701   1.269       .  A
O688        C693   1.272       .  A
O689        C692   1.263       .  A
O690        C702   1.271       .  A
O691        C704   1.279       .  A
C692        O697   1.268       .  A
C692       C1077   1.483       .  S
C693       C1047   1.466       .  S
O695        C698   1.264       .  A
O696        C698   1.263       .  A
C698        C847   1.490       .  S
O699        C704   1.275       .  A
O700        C702   1.273       .  A
C701        O703   1.270       .  A
C701       C1477   1.491       .  S
C702        C824   1.462       .  S
C704       C1057   1.470       .  S
Fe705       O721   2.047       .  S
Fe705       O711   2.055       .  S
Fe705       O718   2.044       .  S
Fe705       O710   2.051       .  S
Fe705       O716   1.955       .  S
Fe706       O709   2.062       .  S
Fe706       O713   2.083       .  S
Fe706       O717   2.080       .  S
Fe706       O722   2.075       .  S
Fe706       O716   1.968       .  S
Fe707       O725   2.083       .  S
Fe707       O712   2.054       .  S
Fe707       O719   2.087       .  S
Fe707       O708   2.084       .  S
Fe707       O716   1.957       .  S
O708        C715   1.277       .  A
O709        C723   1.270       .  A
O710        C715   1.271       .  A
O711        C714   1.263       .  A
O712        C724   1.270       .  A
O713        C726   1.278       .  A
C714        O719   1.268       .  A
C714       C1437   1.479       .  S
C715       C1547   1.471       .  S
O717        C720   1.265       .  A
O718        C720   1.262       .  A
C720        C814   1.487       .  S
O721        C726   1.274       .  A
O722        C724   1.272       .  A
C723        O725   1.271       .  A
C723        C907   1.492       .  S
C724        C804   1.462       .  S
C726       C1557   1.469       .  S
Fe727       O743   2.042       .  S
Fe727       O733   2.059       .  S
Fe727       O740   2.045       .  S
Fe727       O732   2.045       .  S
Fe727       O738   1.954       .  S
Fe728       O731   2.066       .  S
Fe728       O735   2.090       .  S
Fe728       O739   2.082       .  S
Fe728       O744   2.083       .  S
Fe728       O738   1.967       .  S
Fe729       O747   2.074       .  S
Fe729       O734   2.053       .  S
Fe729       O741   2.088       .  S
Fe729       O730   2.079       .  S
Fe729       O738   1.955       .  S
O730        C737   1.275       .  A
O731        C745   1.270       .  A
O732        C737   1.269       .  A
O733        C736   1.264       .  A
O734        C746   1.271       .  A
O735        C748   1.279       .  A
C736        O741   1.269       .  A
C736       C1364   1.482       .  S
C737       C1487   1.466       .  S
O739        C742   1.266       .  A
O740        C742   1.262       .  A
C742        C817   1.488       .  S
O743        C748   1.273       .  A
O744        C746   1.274       .  A
C745        O747   1.269       .  A
C745       C1027   1.489       .  S
C746        C827   1.467       .  S
C748       C1497   1.471       .  S
Fe749       O755   2.060       .  S
Fe749       O762   2.046       .  S
Fe749       O754   2.043       .  S
Fe749      O2637   2.040       .  S
Fe749       O760   1.950       .  S
Fe750       O761   2.082       .  S
Fe750       O766   2.081       .  S
Fe750      O2625   2.064       .  S
Fe750      O2629   2.091       .  S
Fe750       O760   1.955       .  S
Fe751       O769   2.084       .  S
Fe751       O756   2.055       .  S
Fe751       O763   2.086       .  S
Fe751       O752   2.082       .  S
Fe751       O760   1.949       .  S
O752        C759   1.277       .  A
O753      Fe2622   2.065   1_554  S
O753       C2639   1.270   1_554  A
O754        C759   1.271       .  A
O755        C758   1.263       .  A
O756        C768   1.271       .  A
O757      Fe2622   2.087   1_554  S
O757        C770   1.280       .  A
C758        O763   1.268       .  A
C758        C897   1.480       .  S
C759        C967   1.465       .  S
O761        C764   1.265       .  A
O762        C764   1.261       .  A
C764        C794   1.487       .  S
O765      Fe2621   2.038   1_554  S
O765        C770   1.274       .  A
O766        C768   1.274       .  A
C767        O769   1.272       .  A
C767       O2625   1.270       .  A
C767       C2869   1.492       .  S
C768        C837   1.465       .  S
C770        C977   1.468       .  S
Fe771       O787   2.049       .  S
Fe771       O777   2.056       .  S
Fe771       O784   2.047       .  S
Fe771       O776   2.050       .  S
Fe771       O782   1.961       .  S
Fe772       O775   2.061       .  S
Fe772       O779   2.082       .  S
Fe772       O783   2.075       .  S
Fe772       O788   2.079       .  S
Fe772       O782   1.972       .  S
Fe773       O791   2.076       .  S
Fe773       O785   2.083       .  S
Fe773      O2650   2.054       .  S
Fe773      O2646   2.071       .  S
Fe773       O782   1.966       .  S
O774      Fe2645   2.074   1_554  S
O774        C781   1.274       .  A
O775        C789   1.268       .  A
O776       C2653   1.270       .  A
O777        C780   1.264       .  A
O778      Fe2645   2.054   1_554  S
O778       C2662   1.271       .  A
O779        C792   1.278       .  A
C780        O785   1.268       .  A
C780        C867   1.478       .  S
C781       O2648   1.271       .  A
C781        C924   1.465       .  S
O783        C786   1.264       .  A
O784        C786   1.262       .  A
C786        C797   1.486       .  S
O787        C792   1.275       .  A
O788        C790   1.274       .  A
C789        O791   1.269       .  A
C789       C1527   1.490       .  S
C790       O2650   1.271       .  A
C790       C2679   1.463       .  S
C792        C937   1.469       .  S
C793        C794   1.406       .  A
C793        C798   1.389       .  A
C793        H799   1.083       .  S
C794        C795   1.408       .  A
C795        C796   1.409       .  A
C795        H800   1.082       .  S
C796        C797   1.410       .  A
C796        H801   1.082       .  S
C797        C798   1.403       .  A
C798        H802   1.083       .  S
C803        C804   1.402       .  A
C803        C808   1.396       .  A
C803        H809   1.084       .  S
C804        C805   1.401       .  A
C805        C806   1.397       .  A
C805        H810   1.084       .  S
C806        C807   1.403       .  A
C806        H811   1.083       .  S
C807       C2662   1.462       .  S
C807        C808   1.401       .  A
C808       H2684   1.084   1_554  S
H812       C2680   1.084       .  S
C813        C814   1.404       .  A
C813        C818   1.387   1_545  A
C813        H819   1.083       .  S
C814        C815   1.409       .  A
C815        C816   1.411   1_545  A
C815        H820   1.082       .  S
C816        C817   1.410       .  A
C816        H821   1.082       .  S
C817        C818   1.405       .  A
C818        H822   1.083       .  S
C823        C824   1.400       .  A
C823        C828   1.394       .  A
C823        H829   1.085       .  S
C824        C825   1.404       .  A
C825        C826   1.400       .  A
C825        H830   1.082       .  S
C826        C827   1.403       .  A
C826        H831   1.084       .  S
C827        C828   1.403       .  A
C828        H832   1.082       .  S
C833        C834   1.402   1_545  A
C833        C838   1.398       .  A
C833        H839   1.084       .  S
C834        C835   1.404       .  A
C835        C836   1.397       .  A
C835        H840   1.084       .  S
C836        C837   1.401   1_565  A
C836        H841   1.084       .  S
C837        C838   1.404       .  A
C838        H842   1.083       .  S
C843        C844   1.406       .  A
C843        C848   1.390       .  A
C843        H849   1.083       .  S
C844        C845   1.409       .  A
C845        C846   1.411       .  A
C845        H850   1.082       .  S
C846        C847   1.410       .  A
C846        H851   1.082       .  S
C847        C848   1.405       .  A
C848        H852   1.083       .  S
C853        C854   1.406       .  A
C853        C858   1.390   1_655  A
C853        H859   1.083       .  S
C854        C855   1.409       .  A
C855        C856   1.411   1_655  A
C855        H860   1.082       .  S
C856        C857   1.410       .  A
C856        H861   1.082       .  S
C857        C858   1.405       .  A
C858        H862   1.083       .  S
C863        C864   1.404       .  A
C863        C868   1.393       .  A
C863        H869   1.084       .  S
C864        C865   1.412       .  A
C865        C866   1.406       .  A
C865        H870   1.082       .  S
C866        C867   1.403       .  A
C866        H871   1.083       .  S
C867        C868   1.405       .  A
C868        H872   1.083       .  S
C873        C874   1.402       .  A
C873        C878   1.399       .  A
C873       H2751   1.084       .  S
C874       C2486   1.467       .  S
C874        C875   1.404       .  A
C875        C876   1.399       .  A
C875        H880   1.082       .  S
C876        C877   1.402       .  A
C876        H881   1.084       .  S
C877        C878   1.404       .  A
C878        H882   1.082       .  S
H879       C2745   1.085   1_554  S
C883        C884   1.409       .  A
C883        C888   1.411       .  A
C883        H889   1.082       .  S
C884        C885   1.406       .  A
C885        C886   1.390       .  A
C885        H890   1.082       .  S
C886        C887   1.406       .  A
C886        H891   1.082       .  S
C887        C888   1.409       .  A
C888        H892   1.082       .  S
C893        C898   1.395       .  A
C893       C2766   1.404       .  A
C893        H899   1.083   1_655  S
C894        C895   1.412   1_556  A
C894       C2765   1.404       .  A
C895       C2768   1.407   1_554  A
C895        H900   1.082       .  S
C896        C897   1.403       .  A
C896       C2767   1.406       .  A
C896        H901   1.083       .  S
C897        C898   1.406       .  A
C898        H902   1.083       .  S
C903        C904   1.404       .  A
C903        C908   1.394       .  A
C903        H909   1.083       .  S
C904        C905   1.405       .  A
C905        C906   1.409       .  A
C905        H910   1.083       .  S
C906        C907   1.411       .  A
C906        H911   1.082       .  S
C907        C908   1.406       .  A
C908        H912   1.083       .  S
C913        C914   1.404       .  A
C913        C918   1.398       .  A
C913        H919   1.085       .  S
C914        C915   1.403       .  A
C915        C916   1.400       .  A
C915        H920   1.082       .  S
C916        C917   1.403       .  A
C916        H921   1.085       .  S
C917        C918   1.402       .  A
C918        H922   1.082       .  S
C923        C924   1.401       .  A
C923        C928   1.389       .  A
C923        H929   1.082       .  S
C924        C925   1.403       .  A
C925        C926   1.400       .  A
C925        H930   1.084       .  S
C926        C927   1.407       .  A
C926        H931   1.082       .  S
C927        C928   1.404       .  A
C928        H932   1.085       .  S
C933        C934   1.401       .  A
C933        C938   1.388       .  A
C933        H939   1.084       .  S
C934        C935   1.403       .  A
C935        C936   1.400       .  A
C935        H940   1.083       .  S
C936        C937   1.406       .  A
C936        H941   1.083       .  S
C937        C938   1.402       .  A
C938        H942   1.083       .  S
C943        C944   1.403       .  A
C943        C948   1.406       .  A
C943        H949   1.083       .  S
C944        C945   1.406       .  A
C945        C946   1.396       .  A
C945        H950   1.083       .  S
C946        C947   1.404   1_545  A
C946        H951   1.083   1_545  S
C947        C948   1.412   1_565  A
C948        H952   1.082       .  S
C953        C954   1.405       .  A
C953        C958   1.391       .  A
C953        H959   1.083       .  S
C954        C955   1.410       .  A
C955        C956   1.411       .  A
C955        H960   1.083       .  S
C956        C957   1.409       .  A
C956        H961   1.082       .  S
C957        C958   1.406       .  A
C958        H962   1.083       .  S
C963        C964   1.404       .  A
C963        C968   1.398       .  A
C963        H969   1.082       .  S
C964        C965   1.401       .  A
C965        C966   1.389       .  A
C965        H970   1.085       .  S
C966        C967   1.402       .  A
C966        H971   1.083       .  S
C967        C968   1.403       .  A
C968        H972   1.084       .  S
C973        C974   1.402       .  A
C973        C978   1.397       .  A
C973        H979   1.085       .  S
C974        C975   1.400       .  A
C975        C976   1.388       .  A
C975        H980   1.083       .  S
C976        C977   1.404       .  A
C976        H981   1.084       .  S
C977        C978   1.406       .  A
C978        H982   1.081       .  S
C983        C984   1.403       .  A
C983        C988   1.398       .  A
C983        H989   1.083       .  S
C984        C985   1.401   1_655  A
C985        C986   1.397       .  A
C985        H990   1.084       .  S
C986        C987   1.403       .  A
C986        H991   1.084       .  S
C987        C988   1.402   1_455  A
C988        H992   1.084       .  S
C993        C998   1.408       .  A
C993       C2866   1.405       .  A
C993        H999   1.084       .  S
C994        C995   1.404       .  A
C994       C2865   1.405       .  A
C995        C996   1.396       .  A
C995       H1000   1.082       .  S
C996        C997   1.406   1_565  A
C996       H1001   1.084   1_565  S
C997       C2639   1.491   1_554  S
C997       C2870   1.411   1_544  A
C998       C2869   1.411   1_565  A
C998       H1002   1.082       .  S
C1003      C1004   1.403       .  A
C1003      C1008   1.398       .  A
C1003      H1009   1.084       .  S
C1004      C1005   1.402       .  A
C1005      C1006   1.389       .  A
C1005      H1010   1.083       .  S
C1006      C1007   1.402       .  A
C1006      H1011   1.085       .  S
C1007      C1008   1.404       .  A
C1008      H1012   1.083       .  S
C1013      C1014   1.402       .  A
C1013      C1018   1.388       .  A
C1013      H1019   1.085       .  S
C1014      C1015   1.403       .  A
C1015      C1016   1.399       .  A
C1015      H1020   1.083       .  S
C1016      C1017   1.405       .  A
C1016      H1021   1.084       .  S
C1017      C1018   1.402       .  A
C1018      H1022   1.083       .  S
C1023      C1024   1.405       .  A
C1023      C1028   1.396       .  A
C1023      H1029   1.083       .  S
C1024      C1025   1.403       .  A
C1025      C1026   1.406       .  A
C1025      H1030   1.083       .  S
C1026      C1027   1.411       .  A
C1026      H1031   1.082       .  S
C1027      C1028   1.405       .  A
C1028      H1032   1.083       .  S
C1033      C1034   1.410       .  A
C1033      C1038   1.412       .  A
C1033      H1039   1.082       .  S
C1034      C1035   1.405       .  A
C1035      C1036   1.391       .  A
C1035      H1040   1.083       .  S
C1036      C1037   1.405       .  A
C1036      H1041   1.083       .  S
C1037      C1038   1.410       .  A
C1038      H1042   1.082       .  S
C1043      C1044   1.403       .  A
C1043      C1048   1.389       .  A
C1043      H1049   1.085       .  S
C1044      C1045   1.405       .  A
C1045      C1046   1.399       .  A
C1045      H1050   1.081       .  S
C1046      C1047   1.403       .  A
C1046      H1051   1.085       .  S
C1047      C1048   1.402       .  A
C1048      H1052   1.082       .  S
C1053      C1054   1.401       .  A
C1053      C1058   1.391       .  A
C1053      H1059   1.083       .  S
C1054      C1055   1.402       .  A
C1055      C1056   1.398       .  A
C1055      H1060   1.084       .  S
C1056      C1057   1.405       .  A
C1056      H1061   1.083       .  S
C1057      C1058   1.404       .  A
C1058      H1062   1.084       .  S
C1063      C1064   1.403       .  A
C1063      C1068   1.397       .  A
C1063      H1069   1.084       .  S
C1064      C1065   1.401       .  A
C1065      C1066   1.397       .  A
C1065      H1070   1.084       .  S
C1066      C1067   1.403       .  A
C1066      H1071   1.083       .  S
C1067      C2376   1.463       .  S
C1067      C1068   1.402       .  A
C1068      H1072   1.083       .  S
C1073      C1074   1.405       .  A
C1073      C1078   1.394       .  A
C1073      H1079   1.083       .  S
C1074      C1075   1.412       .  A
C1075      C1076   1.409       .  A
C1075      H1080   1.083       .  S
C1076      C1077   1.405       .  A
C1076      H1081   1.083       .  S
C1077      C1078   1.405       .  A
C1078      H1082   1.084       .  S
C1083      C1084   1.411       .  A
C1083      C1088   1.413       .  A
C1083      H1089   1.082       .  S
C1084      C1085   1.405       .  A
C1085      C1086   1.387       .  A
C1085      H1090   1.083       .  S
C1086      C1087   1.405       .  A
C1086      H1091   1.083       .  S
C1087      C1088   1.410       .  A
C1088      H1092   1.082       .  S
C1093      C1094   1.402       .  A
C1093      C1098   1.398       .  A
C1093      H1099   1.084       .  S
C1094      C1095   1.404       .  A
C1095      C1096   1.399       .  A
C1095      H1100   1.083       .  S
C1096      C1097   1.402       .  A
C1096      H1101   1.084       .  S
C1097      C1098   1.404       .  A
C1098      H1102   1.083       .  S
C1103      C1104   1.402       .  A
C1103      C1108   1.399       .  A
C1103      H1109   1.084       .  S
C1104      C1105   1.404       .  A
C1105      C1106   1.399       .  A
C1105      H1110   1.082       .  S
C1106      C1107   1.402       .  A
C1106      H1111   1.085       .  S
C1107      C1108   1.404       .  A
C1108      H1112   1.083       .  S
C1113      C1114   1.408       .  A
C1113      C1118   1.409       .  A
C1113      H1119   1.082       .  S
C1114      C1115   1.405       .  A
C1115      C1116   1.388       .  A
C1115      H1120   1.082       .  S
C1116      C1117   1.405       .  A
C1116      H1121   1.083       .  S
C1117      C1118   1.409       .  A
C1118      H1122   1.082       .  S
C1123      C1124   1.411       .  A
C1123      C1128   1.406       .  A
C1123      H1129   1.083       .  S
C1124      C1125   1.405       .  A
C1125      C1126   1.393       .  A
C1125      H1130   1.082       .  S
C1126      C1127   1.405       .  A
C1126      H1131   1.084       .  S
C1127      C1128   1.404       .  A
C1128      H1132   1.082       .  S
C1133      C1134   1.405       .  A
C1133      C1138   1.407       .  A
C1133      H1139   1.082       .  S
C1134      C3007   1.403       .  A
C1135      C1136   1.394       .  A
C1135      C3006   1.404       .  A
C1135      H1140   1.084       .  S
C1136      C1137   1.405   1_556  A
C1136      H1141   1.083       .  S
C1137      C3010   1.411       .  A
C1138      C3009   1.411       .  A
C1138      H1142   1.083       .  S
C1143      C1144   1.407       .  A
C1143      C1148   1.400       .  A
C1143      H1149   1.081       .  S
C1144      C1145   1.405       .  A
C1145      C1146   1.389       .  A
C1145      H1150   1.085       .  S
C1146      C1147   1.400       .  A
C1146      H1151   1.082       .  S
C1147      C1148   1.403       .  A
C1148      H1152   1.085       .  S
C1153      C1154   1.403       .  A
C1153      C1158   1.388       .  A
C1153      H1159   1.084       .  S
C1154      C1155   1.406       .  A
C1155      C1156   1.400       .  A
C1155      H1160   1.083       .  S
C1156      C1157   1.403       .  A
C1156      H1161   1.083       .  S
C1157      C1158   1.401       .  A
C1158      H1162   1.084       .  S
C1163      C1164   1.405       .  A
C1163      C1168   1.396       .  A
C1163      H1169   1.083       .  S
C1164      C1165   1.405       .  A
C1165      C1166   1.409       .  A
C1165      H1170   1.083       .  S
C1166      C1167   1.412       .  A
C1166      H1171   1.082       .  S
C1167      C1168   1.405       .  A
C1168      H1172   1.084       .  S
C1173      C1174   1.410       .  A
C1173      C1178   1.414       .  A
C1173      H1179   1.082       .  S
C1174      C1175   1.406       .  A
C1175      C1176   1.388       .  A
C1175      H1180   1.082       .  S
C1176      C1177   1.404       .  A
C1176      H1181   1.083       .  S
C1177      C1178   1.411       .  A
C1178      H1182   1.082       .  S
C1183      C1184   1.412       .  A
C1183      C1188   1.407       .  A
C1183      H1189   1.082       .  S
C1184      C1185   1.405       .  A
C1185      C1186   1.396       .  A
C1185      H1190   1.084       .  S
C1186      C1187   1.405       .  A
C1186      H1191   1.083       .  S
C1187      C1188   1.404       .  A
C1188      H1192   1.084       .  S
C1193      C1194   1.404       .  A
C1193      C1198   1.389       .  A
C1193      H1199   1.083       .  S
C1194      C1195   1.406       .  A
C1195      C1196   1.401       .  A
C1195      H1200   1.078       .  S
C1196      C1197   1.403       .  A
C1196      H1201   1.086       .  S
C1197      C1198   1.400       .  A
C1198      H1202   1.083       .  S
C1203      C1204   1.406       .  A
C1203      C1208   1.398       .  A
C1203      H1209   1.083       .  S
C1204      C1205   1.405       .  A
C1205      C1206   1.389       .  A
C1205      H1210   1.083       .  S
C1206      C1207   1.400       .  A
C1206      H1211   1.085       .  S
C1207      C1208   1.401       .  A
C1208      H1212   1.083       .  S
C1213      C1214   1.404       .  A
C1213      C1218   1.395       .  A
C1213      H1219   1.083       .  S
C1214      C1215   1.404       .  A
C1215      C1216   1.407       .  A
C1215      H1220   1.083       .  S
C1216      C1217   1.411       .  A
C1216      H1221   1.082       .  S
C1217      C1218   1.405       .  A
C1218      H1222   1.083       .  S
C1223      C1224   1.404       .  A
C1223      C3100   1.398   1_554  A
C1223      H1229   1.084       .  S
C1224      C1225   1.402       .  A
C1225      C3098   1.390   1_554  A
C1225      H1230   1.083       .  S
C1226      C1227   1.401       .  A
C1226      C3097   1.388       .  A
C1226      H1231   1.085       .  S
C1227      C1228   1.403       .  A
C1228      C3095   1.398       .  A
C1228      H1232   1.083       .  S
C1233      C1234   1.402       .  A
C1233      C1238   1.388       .  A
C1233      H1239   1.083       .  S
C1234      C1235   1.403       .  A
C1235      C1236   1.398       .  A
C1235      H1240   1.084       .  S
C1236      C1237   1.404       .  A
C1236      H1241   1.082       .  S
C1237      C1238   1.403       .  A
C1238      H1242   1.084       .  S
C1243      C1244   1.404       .  A
C1243      C1248   1.407       .  A
C1243      H1249   1.082       .  S
C1244      C1245   1.405       .  A
C1245      C1246   1.393       .  A
C1245      H1250   1.084       .  S
C1246      C1247   1.404       .  A
C1246      H1251   1.083       .  S
C1247      C1248   1.411       .  A
C1248      H1252   1.083       .  S
C1253      C1254   1.404       .  A
C1253      C1258   1.397       .  A
C1253      H1259   1.082       .  S
C1254      C1255   1.403       .  A
C1255      C1256   1.401       .  A
C1255      H1260   1.084       .  S
C1256      C1257   1.405       .  A
C1256      H1261   1.082       .  S
C1257      C2244   1.468   1_554  S
C1257      C1258   1.401       .  A
C1258      H3134   1.085   1_554  S
H1262      C3130   1.085       .  S
C1263      C1264   1.407       .  A
C1263      C1268   1.399       .  A
C1263      H1269   1.083       .  S
C1264      C1265   1.404       .  A
C1265      C1266   1.389       .  A
C1265      H1270   1.083       .  S
C1266      C1267   1.400       .  A
C1266      H1271   1.085       .  S
C1267      C1268   1.401       .  A
C1268      H1272   1.083       .  S
C1273      C1274   1.404       .  A
C1273      C3150   1.399       .  A
C1273      H1279   1.085       .  S
C1274      C1275   1.404       .  A
C1275      C1276   1.387   1_554  A
C1275      H1280   1.082       .  S
C1276      C3149   1.400       .  A
C1276      H3153   1.085       .  S
C1277      C1278   1.404       .  A
C1277      C3148   1.401       .  A
C1278      C3145   1.399       .  A
C1278      H1282   1.081       .  S
H1281      C3148   1.085       .  S
C1283      C1284   1.407       .  A
C1283      C1288   1.393   1_655  A
C1283      H1289   1.083       .  S
C1284      C1285   1.409       .  A
C1285      C1286   1.412   1_655  A
C1285      H1290   1.082       .  S
C1286      C1287   1.410       .  A
C1286      H1291   1.082       .  S
C1287      C1288   1.406       .  A
C1288      H1292   1.083       .  S
C1293      C1294   1.403       .  A
C1293      C1298   1.395       .  A
C1293      H1299   1.084       .  S
C1294      C1295   1.412       .  A
C1295      C1296   1.406       .  A
C1295      H1300   1.082       .  S
C1296      C1297   1.403       .  A
C1296      H1301   1.083       .  S
C1297      C1298   1.406       .  A
C1298      H1302   1.083       .  S
C1303      C1304   1.405       .  A
C1303      C1308   1.398       .  A
C1303      H1309   1.080       .  S
C1304      C1305   1.402   1_455  A
C1305      C1306   1.400       .  A
C1305      H1310   1.084       .  S
C1306      C1307   1.404       .  A
C1306      H1311   1.082       .  S
C1307      C1308   1.401   1_655  A
C1308      H1312   1.085       .  S
C1313      C1314   1.411       .  A
C1313      C1318   1.405       .  A
C1313      H1319   1.082       .  S
C1314      C1315   1.403       .  A
C1315      C1316   1.392       .  A
C1315      H1320   1.084       .  S
C1316      C1317   1.405       .  A
C1316      H1321   1.083       .  S
C1317      C1318   1.403       .  A
C1318      H1322   1.083       .  S
C1323      C1324   1.405       .  A
C1323      C1328   1.388       .  A
C1323      H1329   1.083       .  S
C1324      C1325   1.410       .  A
C1325      C1326   1.411       .  A
C1325      H1330   1.082       .  S
C1326      C1327   1.409       .  A
C1326      H1331   1.082       .  S
C1327      C1328   1.405       .  A
C1328      H1332   1.083       .  S
C1333      C1334   1.411       .  A
C1333      C1338   1.406       .  A
C1333      H1339   1.082       .  S
C1334      C1335   1.405       .  A
C1335      C1336   1.395       .  A
C1335      H1340   1.084       .  S
C1336      C1337   1.405       .  A
C1336      H1341   1.083       .  S
C1337      C1338   1.404       .  A
C1338      H1342   1.084       .  S
C1343      C1344   1.403       .  A
C1343      C1348   1.397       .  A
C1343      H1349   1.083       .  S
C1344      C1345   1.402       .  A
C1345      C1346   1.397       .  A
C1345      H1350   1.084       .  S
C1346      C1347   1.403       .  A
C1346      H1351   1.083       .  S
C1347      C1348   1.401       .  A
C1348      H1352   1.084       .  S
C1353      C1354   1.404       .  A
C1353      C1358   1.407       .  A
C1353      H1359   1.084       .  S
C1354      C1355   1.405       .  A
C1355      C1356   1.392       .  A
C1355      H1360   1.083       .  S
C1356      C1357   1.403       .  A
C1356      H1361   1.084       .  S
C1357      C1358   1.412       .  A
C1358      H1362   1.082       .  S
C1363      C1364   1.405       .  A
C1363      C1368   1.395       .  A
C1363      H1369   1.083       .  S
C1364      C1365   1.404       .  A
C1365      C1366   1.408       .  A
C1365      H1370   1.083       .  S
C1366      C1367   1.412       .  A
C1366      H1371   1.082       .  S
C1367      C1368   1.404       .  A
C1368      H1372   1.084       .  S
C1373      C1374   1.404       .  A
C1373      C1378   1.389       .  A
C1373      H1379   1.084       .  S
C1374      C1375   1.406       .  A
C1375      C1376   1.399       .  A
C1375      H1380   1.083       .  S
C1376      C1377   1.401       .  A
C1376      H1381   1.083       .  S
C1377      C1378   1.400       .  A
C1378      H1382   1.083       .  S
C1383      C1384   1.402       .  A
C1383      C1388   1.388       .  A
C1383      H1389   1.084       .  S
C1384      C1385   1.402       .  A
C1385      C1386   1.397       .  A
C1385      H1390   1.084       .  S
C1386      C1387   1.404       .  A
C1386      H1391   1.083       .  S
C1387      C1388   1.402       .  A
C1388      H1392   1.083       .  S
C1393      C1394   1.404       .  A
C1393      C1398   1.394   1_455  A
C1393      H1399   1.083       .  S
C1394      C1395   1.403       .  A
C1395      C3268   1.406   1_554  A
C1395      H1400   1.083   1_554  S
C1396      C3267   1.405       .  A
C1396      C3269   1.411   1_455  A
C1396      H1401   1.082   1_455  S
C1397      C2265   1.487   1_554  S
C1397      C1398   1.404       .  A
C1397      C3268   1.411   1_654  A
C1398      H1402   1.083       .  S
C1403      C1404   1.410       .  A
C1403      C1408   1.411       .  A
C1403      H1409   1.082       .  S
C1404      C1405   1.406       .  A
C1405      C1406   1.392       .  A
C1405      H1410   1.082       .  S
C1406      C1407   1.407       .  A
C1406      H1411   1.082       .  S
C1407      C1408   1.409       .  A
C1408      H1412   1.082       .  S
C1413      C1414   1.402       .  A
C1413      C1418   1.388       .  A
C1413      H1419   1.085       .  S
C1414      C1415   1.407       .  A
C1415      C1416   1.398       .  A
C1415      H1420   1.081       .  S
C1416      C1417   1.401       .  A
C1416      H1421   1.084       .  S
C1417      C1418   1.402       .  A
C1418      H1422   1.081       .  S
C1423      C1424   1.406       .  A
C1423      C1428   1.401       .  A
C1423      H1429   1.084       .  S
C1424      C1425   1.403       .  A
C1425      C1426   1.388       .  A
C1425      H1430   1.083       .  S
C1426      C1427   1.401       .  A
C1426      H1431   1.085       .  S
C1427      C1428   1.404       .  A
C1428      H1432   1.082       .  S
C1433      C1434   1.404       .  A
C1433      C1438   1.395       .  A
C1433      H1439   1.083       .  S
C1434      C1435   1.411       .  A
C1435      C1436   1.406       .  A
C1435      H1440   1.082       .  S
C1436      C1437   1.403       .  A
C1436      H1441   1.083       .  S
C1437      C1438   1.405       .  A
C1438      H1442   1.083       .  S
C1443      C1444   1.403       .  A
C1443      C1448   1.395       .  A
C1443      H1449   1.085       .  S
C1444      C1445   1.403   1_545  A
C1445      C1446   1.401       .  A
C1445      H1450   1.083       .  S
C1446      C1447   1.403       .  A
C1446      H1451   1.084       .  S
C1447      C1448   1.400   1_565  A
C1448      H1452   1.083       .  S
C1453      C1454   1.410       .  A
C1453      C1458   1.413       .  A
C1453      H1459   1.082       .  S
C1454      C1455   1.405       .  A
C1455      C1456   1.390       .  A
C1455      H1460   1.083       .  S
C1456      C1457   1.406       .  A
C1456      H1461   1.083       .  S
C1457      C1458   1.410       .  A
C1458      H1462   1.082       .  S
C1463      C1464   1.411   1_565  A
C1463      C1468   1.405       .  A
C1463      H1469   1.084       .  S
C1464      C1465   1.404   1_545  A
C1465      C1466   1.392       .  A
C1465      H1470   1.082   1_565  S
C1466      C1467   1.404       .  A
C1466      H1471   1.084       .  S
C1467      C1468   1.403       .  A
C1468      H1472   1.082       .  S
C1473      C1474   1.405       .  A
C1473      C1478   1.391       .  A
C1473      H1479   1.083       .  S
C1474      C1475   1.406       .  A
C1475      C1476   1.410       .  A
C1475      H1480   1.083       .  S
C1476      C1477   1.412       .  A
C1476      H1481   1.082       .  S
C1477      C1478   1.405       .  A
C1478      H1482   1.083       .  S
C1483      C1484   1.403       .  A
C1483      C1488   1.391       .  A
C1483      H1489   1.084       .  S
C1484      C1485   1.403       .  A
C1485      C1486   1.398       .  A
C1485      H1490   1.082       .  S
C1486      C1487   1.404       .  A
C1486      H1491   1.084       .  S
C1487      C1488   1.402       .  A
C1488      H1492   1.083       .  S
C1493      C1494   1.403       .  A
C1493      C1498   1.399       .  A
C1493      H1499   1.084       .  S
C1494      C1495   1.400       .  A
C1495      C3368   1.391       .  A
C1495      H1500   1.083       .  S
C1496      C1497   1.405       .  A
C1496      C3367   1.390   1_554  A
C1496      H1501   1.084       .  S
C1497      C3370   1.405       .  A
C1498      C3369   1.405       .  A
C1498      H3374   1.082       .  S
H1502      C3370   1.082       .  S
C1503      C1504   1.402       .  A
C1503      C1508   1.397       .  A
C1503      H1509   1.084       .  S
C1504      C1505   1.401       .  A
C1505      C1506   1.397       .  A
C1505      H1510   1.084       .  S
C1506      C1507   1.403       .  A
C1506      H1511   1.084       .  S
C1507      C2134   1.463       .  S
C1507      C1508   1.401       .  A
C1508      H3384   1.084       .  S
H1512      C3380   1.084   1_554  S
C1513      C1514   1.406       .  A
C1513      C1518   1.395       .  A
C1513      H1519   1.083       .  S
C1514      C1515   1.411       .  A
C1515      C1516   1.407       .  A
C1515      H1520   1.083       .  S
C1516      C1517   1.405       .  A
C1516      H1521   1.083       .  S
C1517      C1518   1.404       .  A
C1518      H1522   1.083       .  S
C1523      C1524   1.405       .  A
C1523      C1528   1.408       .  A
C1523      H1529   1.083       .  S
C1524      C1525   1.405       .  A
C1525      C1526   1.394       .  A
C1525      H1530   1.083       .  S
C1526      C1527   1.405       .  A
C1526      H1531   1.084       .  S
C1527      C1528   1.411       .  A
C1528      H1532   1.082       .  S
C1533      C1534   1.409       .  A
C1533      C1538   1.411   1_545  A
C1533      H1539   1.082       .  S
C1534      C1535   1.404       .  A
C1535      C1536   1.390   1_545  A
C1535      H1540   1.083       .  S
C1536      C1537   1.404       .  A
C1536      H1541   1.083       .  S
C1537      C1538   1.409       .  A
C1538      H1542   1.082       .  S
C1543      C1544   1.403       .  A
C1543      C3420   1.388       .  A
C1543      H1549   1.083       .  S
C1544      C3417   1.404       .  A
C1545      C1546   1.402       .  A
C1545      C3416   1.405   1_554  A
C1545      H1550   1.084   1_554  S
C1546      C1547   1.405       .  A
C1546      H1551   1.082       .  S
C1547      C1548   1.401       .  A
C1548      C3415   1.390   1_554  A
C1548      H1552   1.085       .  S
C1553      C1554   1.402       .  A
C1553      C1558   1.400       .  A
C1553      H1559   1.084       .  S
C1554      C1555   1.401       .  A
C1555      C1556   1.389       .  A
C1555      H1560   1.083       .  S
C1556      C1557   1.403       .  A
C1556      H1561   1.084       .  S
C1557      C1558   1.406       .  A
C1558      H1562   1.081       .  S
C1563      C1564   1.403       .  A
C1563      C1568   1.398       .  A
C1563      H1569   1.083       .  S
C1564      C1565   1.401       .  A
C1565      C1566   1.397       .  A
C1565      H1570   1.084       .  S
C1566      C1567   1.403       .  A
C1566      H1571   1.083       .  S
C1567      C1568   1.402       .  A
C1568      H1572   1.084       .  S
C1573      C1574   1.404       .  A
C1573      C1578   1.397       .  A
C1573      H1579   1.084       .  S
C1574      C1575   1.404       .  A
C1575      C1576   1.408       .  A
C1575      H1580   1.082       .  S
C1576      C1577   1.411       .  A
C1576      H1581   1.083       .  S
C1577      C1578   1.405       .  A
C1578      H1582   1.083       .  S
C1583      C1584   1.405       .  A
C1583      C1588   1.394       .  A
C1583      H1589   1.084       .  S
C1584      C1585   1.412       .  A
C1585      C1586   1.410       .  A
C1585      H1590   1.082       .  S
C1586      C1587   1.405       .  A
C1586      H1591   1.084       .  S
C1587      C1588   1.405       .  A
C1588      H1592   1.083       .  S
C1593      C1594   1.406       .  A
C1593      C1598   1.400       .  A
C1593      H1599   1.084       .  S
C1594      C1595   1.405       .  A
C1595      C1596   1.389       .  A
C1595      H1600   1.084       .  S
C1596      C1597   1.400       .  A
C1596      H1601   1.084       .  S
C1597      C1598   1.402       .  A
C1598      H1602   1.083       .  S
C1603      C1604   1.404       .  A
C1603      C1608   1.389       .  A
C1603      H1609   1.083       .  S
C1604      C1605   1.406       .  A
C1605      C1606   1.400       .  A
C1605      H1610   1.083       .  S
C1606      C1607   1.403       .  A
C1606      H1611   1.083       .  S
C1607      C1608   1.400       .  A
C1608      H1612   1.084       .  S
C1613      C1618   1.406   1_556  A
C1613      C3486   1.403       .  A
C1613      H1619   1.084   1_556  S
C1614      C1615   1.405       .  A
C1614      C3485   1.404       .  A
C1615      C1616   1.396       .  A
C1615      H1620   1.083       .  S
C1616      C3489   1.405   1_545  A
C1616      H1621   1.084   1_545  S
C1617      C1618   1.412   1_566  A
C1617      C3488   1.405   1_565  A
C1618      H1622   1.082       .  S
C1623      C1624   1.405       .  A
C1623      C1628   1.391       .  A
C1623      H1629   1.083       .  S
C1624      C1625   1.410       .  A
C1625      C1626   1.412       .  A
C1625      H1630   1.082       .  S
C1626      C1627   1.410       .  A
C1626      H1631   1.082       .  S
C1627      C1628   1.406       .  A
C1628      H1632   1.082       .  S
C1633      C1634   1.406       .  A
C1633      C1638   1.395       .  A
C1633      H1639   1.083       .  S
C1634      C1635   1.406       .  A
C1635      C3508   1.411   1_554  A
C1635      H3512   1.083   1_554  S
C1636      C3507   1.410       .  A
C1636      C3509   1.413       .  A
C1636      H1641   1.082       .  S
C1637      C1979   1.495   1_554  S
C1637      C1638   1.405       .  A
C1637      C3508   1.414   1_554  A
C1638      H1642   1.083       .  S
H1640      C3507   1.083       .  S
C1643      C1644   1.403       .  A
C1643      C1648   1.389       .  A
C1643      H1649   1.083       .  S
C1644      C1645   1.404       .  A
C1645      C1646   1.397       .  A
C1645      H1650   1.084       .  S
C1646      C1647   1.403       .  A
C1646      H1651   1.083       .  S
C1647      C1648   1.402       .  A
C1648      H1652   1.085       .  S
C1653      C1654   1.402       .  A
C1653      C1658   1.400       .  A
C1653      H1659   1.084       .  S
C1654      C1655   1.400       .  A
C1655      C1656   1.390       .  A
C1655      H1660   1.083       .  S
C1656      C1657   1.404       .  A
C1656      H1661   1.084       .  S
C1657      C1658   1.406       .  A
C1658      H1662   1.082       .  S
C1663      C1664   1.404       .  A
C1663      C1668   1.407       .  A
C1663      H1669   1.083       .  S
C1664      C1665   1.405       .  A
C1665      C1666   1.395       .  A
C1665      H1670   1.083       .  S
C1666      C1667   1.405       .  A
C1666      H1671   1.084       .  S
C1667      C1668   1.412       .  A
C1668      H1672   1.082       .  S
C1673      C1674   1.411       .  A
C1673      C1678   1.405       .  A
C1673      H1679   1.082       .  S
C1674      C1675   1.404       .  A
C1675      C1676   1.394       .  A
C1675      H1680   1.084       .  S
C1676      C1677   1.405       .  A
C1676      H1681   1.083       .  S
C1677      C1678   1.403       .  A
C1678      H1682   1.084       .  S
C1683      C1684   1.406       .  A
C1683      C3560   1.402   1_554  A
C1683      H1689   1.083       .  S
C1684      C1685   1.404       .  A
C1685      C3558   1.390   1_554  A
C1685      H1690   1.083       .  S
C1686      C1687   1.401       .  A
C1686      C3557   1.390       .  A
C1686      H1691   1.085       .  S
C1687      C1688   1.405       .  A
C1688      C3555   1.402       .  A
C1688      H1692   1.083       .  S
C1693      C1694   1.402       .  A
C1693      C1698   1.388       .  A
C1693      H1699   1.084       .  S
C1694      C1695   1.404       .  A
C1695      C1696   1.400       .  A
C1695      H1700   1.084       .  S
C1696      C1697   1.405       .  A
C1696      H1701   1.083       .  S
C1697      C1698   1.402       .  A
C1698      H1702   1.084       .  S
C1703      C1704   1.404       .  A
C1703      C1708   1.408       .  A
C1703      H1709   1.083       .  S
C1704      C1705   1.405       .  A
C1705      C1706   1.397       .  A
C1705      H1710   1.083       .  S
C1706      C1707   1.406       .  A
C1706      H1711   1.083       .  S
C1707      C1708   1.412       .  A
C1708      H1712   1.082       .  S
C1713      C1714   1.402       .  A
C1713      C1718   1.389       .  A
C1713      H1719   1.082       .  S
C1714      C1715   1.404       .  A
C1715      C1716   1.400       .  A
C1715      H1720   1.084       .  S
C1716      C1717   1.405       .  A
C1716      H1721   1.083       .  S
C1717      C1718   1.402       .  A
C1718      H1722   1.086       .  S
C1723      C1724   1.405       .  A
C1723      C1728   1.401       .  A
C1723      H1729   1.084       .  S
C1724      C1725   1.401       .  A
C1725      C3598   1.389   1_554  A
C1725      H1730   1.083       .  S
C1726      C1727   1.403       .  A
C1726      C3597   1.388       .  A
C1726      H1731   1.085       .  S
C1727      C3600   1.404       .  A
C1728      C3599   1.405   1_554  A
C1728      H1732   1.082   1_554  S
C1733      C1734   1.401       .  A
C1733      C1738   1.397       .  A
C1733      H1739   1.084       .  S
C1734      C1735   1.404       .  A
C1735      C1736   1.401       .  A
C1735      H1740   1.083       .  S
C1736      C1737   1.403       .  A
C1736      H1741   1.084   1_554  S
C1737      C2002   1.470       .  S
C1737      C1738   1.404       .  A
C1738      H1742   1.082       .  S
C1743      C1744   1.404       .  A
C1743      C1748   1.388       .  A
C1743      H1749   1.083       .  S
C1744      C1745   1.410       .  A
C1745      C1746   1.412       .  A
C1745      H1750   1.082       .  S
C1746      C1747   1.410       .  A
C1746      H1751   1.082       .  S
C1747      C1748   1.405       .  A
C1748      H1752   1.083       .  S
C1753      C1754   1.411       .  A
C1753      C1758   1.407       .  A
C1753      H1759   1.082       .  S
C1754      C1755   1.405       .  A
C1755      C1756   1.394       .  A
C1755      H1760   1.084       .  S
C1756      C1757   1.404       .  A
C1756      H1761   1.083       .  S
C1757      C1758   1.404       .  A
C1758      H1762   1.084       .  S
C1763      C1764   1.404       .  A
C1763      C1768   1.408       .  A
C1763      H1769   1.083       .  S
C1764      C1765   1.406       .  A
C1765      C1766   1.395       .  A
C1765      H1770   1.083       .  S
C1766      C1767   1.405       .  A
C1766      H1771   1.083       .  S
C1767      C1768   1.412       .  A
C1768      H1772   1.082       .  S
C1773      C1774   1.407       .  A
C1773      C1778   1.400       .  A
C1773      H1779   1.081       .  S
C1774      C1775   1.404       .  A
C1775      C1776   1.388       .  A
C1775      H1780   1.085       .  S
C1776      C1777   1.400       .  A
C1776      H1781   1.082       .  S
C1777      C1778   1.403       .  A
C1778      H1782   1.085       .  S
C1783      C1784   1.402       .  A
C1783      C1788   1.387       .  A
C1783      H1789   1.084       .  S
C1784      C1785   1.403       .  A
C1785      C1786   1.399       .  A
C1785      H1790   1.084       .  S
C1786      C1787   1.406       .  A
C1786      H1791   1.083       .  S
C1787      C1788   1.402       .  A
C1788      H1792   1.084       .  S
C1793      C1794   1.404       .  A
C1793      C1798   1.399       .  A
C1793      H1799   1.084       .  S
C1794      C1795   1.403       .  A
C1795      C1796   1.399       .  A
C1795      H1800   1.083       .  S
C1796      C1797   1.403       .  A
C1796      H1801   1.084       .  S
C1797      C1798   1.403       .  A
C1798      H1802   1.083       .  S
C1803      C1804   1.412       .  A
C1803      C1808   1.409       .  A
C1803      H1809   1.083       .  S
C1804      C1805   1.405       .  A
C1805      C1806   1.392       .  A
C1805      H1810   1.083       .  S
C1806      C1807   1.405       .  A
C1806      H1811   1.083       .  S
C1807      C1808   1.405       .  A
C1808      H1812   1.082       .  S
C1813      C1814   1.405       .  A
C1813      C1818   1.396   1_455  A
C1813      H1819   1.083       .  S
C1814      C1815   1.404       .  A
C1815      C1816   1.408       .  A
C1815      H1820   1.083       .  S
C1816      C1817   1.412   1_455  A
C1816      H1821   1.082   1_455  S
C1817      C1818   1.405       .  A
C1818      H1822   1.084       .  S
C1823      C1824   1.409       .  A
C1823      C1828   1.410       .  A
C1823      H1829   1.082       .  S
C1824      C1825   1.405       .  A
C1825      C1826   1.389       .  A
C1825      H1830   1.083       .  S
C1826      C1827   1.405       .  A
C1826      H1831   1.083       .  S
C1827      C1828   1.409       .  A
C1828      H1832   1.082       .  S
C1833      C1834   1.405       .  A
C1833      C1838   1.394       .  A
C1833      H1839   1.084       .  S
C1834      C1835   1.405       .  A
C1835      C1836   1.409       .  A
C1835      H1840   1.082       .  S
C1836      C1837   1.412       .  A
C1836      H1841   1.083       .  S
C1837      C1838   1.405       .  A
C1838      H1842   1.083       .  S
C1843      C1844   1.403       .  A
C1843      C1848   1.396       .  A
C1843      H1849   1.081       .  S
C1844      C1845   1.402       .  A
C1845      C1846   1.398       .  A
C1845      H1850   1.086       .  S
C1846      C1847   1.403       .  A
C1846      H1851   1.081       .  S
C1847      C1848   1.401       .  A
C1848      H1852   1.086       .  S
C1853      C1854   1.405       .  A
C1853      C1858   1.398       .  A
C1853      H1859   1.084       .  S
C1854      C1855   1.404       .  A
C1855      C1856   1.389       .  A
C1855      H1860   1.083       .  S
C1856      C1857   1.401       .  A
C1856      H1861   1.085       .  S
C1857      C1858   1.403       .  A
C1858      H1862   1.083       .  S
C1863      C1864   1.404       .  A
C1863      C1868   1.401       .  A
C1863      H1869   1.084       .  S
C1864      C1865   1.401       .  A
C1865      C1866   1.389       .  A
C1865      H1870   1.083       .  S
C1866      C1867   1.404       .  A
C1866      H1871   1.084       .  S
C1867      C1868   1.405       .  A
C1868      H1872   1.082       .  S
Fe1873     O1889   2.041       .  S
Fe1873     O1879   2.057       .  S
Fe1873     O1886   2.047       .  S
Fe1873     O1878   2.046       .  S
Fe1873     O1884   1.956       .  S
Fe1874     O1877   2.065       .  S
Fe1874     O1881   2.084       .  S
Fe1874     O1885   2.082       .  S
Fe1874     O1890   2.073       .  S
Fe1874     O1884   1.967       .  S
Fe1875     O1893   2.083       .  S
Fe1875     O1880   2.056       .  S
Fe1875     O1887   2.091       .  S
Fe1875     O1876   2.081       .  S
Fe1875     O1884   1.957       .  S
O1876      C1883   1.277       .  A
O1877      C1891   1.271       .  A
O1878      C1883   1.270       .  A
O1879      C1882   1.263       .  A
O1880      C1892   1.270       .  A
O1881      C1894   1.278       .  A
C1882      O1887   1.269       .  A
C1882      C3686   1.484       .  S
C1883      C3736   1.465       .  S
O1885      C1888   1.266       .  A
O1886      C1888   1.262       .  A
C1888      C3696   1.488       .  S
O1889      C1894   1.273       .  A
O1890      C1892   1.271       .  A
C1891      O1893   1.272       .  A
C1891      C3709   1.492       .  S
C1892      C3716   1.463       .  S
C1894      C3726   1.467       .  S
Fe1895     O1911   2.044       .  S
Fe1895     O1901   2.054       .  S
Fe1895     O1908   2.044       .  S
Fe1895     O1900   2.046       .  S
Fe1895     O1906   1.959       .  S
Fe1896     O1899   2.062       .  S
Fe1896     O1903   2.087       .  S
Fe1896     O1907   2.081       .  S
Fe1896     O1912   2.079       .  S
Fe1896     O1906   1.970       .  S
Fe1897     O1915   2.078       .  S
Fe1897     O1902   2.061       .  S
Fe1897     O1909   2.090       .  S
Fe1897     O1898   2.072       .  S
Fe1897     O1906   1.963       .  S
O1898      C1905   1.275       .  A
O1899      C1913   1.270       .  A
O1900      C1905   1.270       .  A
O1901      C1904   1.263       .  A
O1902      C1914   1.271       .  A
O1903      C1916   1.279       .  A
C1904      O1909   1.269       .  A
C1904      C3636   1.484       .  S
C1905      C3656   1.461       .  S
O1907      C1910   1.265       .  A
O1908      C1910   1.261       .  A
C1910      C3699   1.489       .  S
O1911      C1916   1.274       .  A
O1912      C1914   1.273       .  A
C1913      O1915   1.270       .  A
C1913      C3676   1.490       .  S
C1914      C3666   1.467       .  S
C1916      C3646   1.472       .  S
Fe1917     O1933   2.051       .  S
Fe1917     O1923   2.047       .  S
Fe1917     O1930   2.059       .  S
Fe1917     O1922   2.048       .  S
Fe1917     O1928   1.963       .  S
Fe1918     O1921   2.062       .  S
Fe1918     O1925   2.073       .  S
Fe1918     O1929   2.089       .  S
Fe1918     O1934   2.072       .  S
Fe1918     O1928   1.965       .  S
Fe1919     O1937   2.083       .  S
Fe1919     O1924   2.063       .  S
Fe1919     O1931   2.082       .  S
Fe1919     O1920   2.085       .  S
Fe1919     O1928   1.976       .  S
O1920      C1927   1.278       .  A
O1921      C1935   1.271       .  A
O1922      C1927   1.273       .  A
O1923      C1926   1.263       .  A
O1924      C1936   1.269       .  A
O1925      C1938   1.275       .  A
C1926      O1931   1.266       .  A
C1926      C3616   1.489       .  S
C1927      C3586   1.468       .  S
O1929      C1932   1.269       .  A
O1930      C1932   1.264       .  A
C1932      C3576   1.484       .  S
O1933      C1938   1.270       .  A
O1934      C1936   1.269       .  A
C1935      O1937   1.274       .  A
C1935      C3606   1.468       .  S
C1936      C3626   1.486       .  S
C1938      C3596   1.469       .  S
Fe1939     O1955   2.046       .  S
Fe1939     O1945   2.057       .  S
Fe1939     O1952   2.047       .  S
Fe1939     O1944   2.051       .  S
Fe1939     O1950   1.954       .  S
Fe1940     O1943   2.064       .  S
Fe1940     O1947   2.094       .  S
Fe1940     O1951   2.086       .  S
Fe1940     O1956   2.085       .  S
Fe1940     O1950   1.967       .  S
Fe1941     O1959   2.071       .  S
Fe1941     O1946   2.058       .  S
Fe1941     O1953   2.087       .  S
Fe1941     O1942   2.073       .  S
Fe1941     O1950   1.957       .  S
O1942      C1949   1.275       .  A
O1943      C1957   1.270       .  A
O1944      C1949   1.272       .  A
O1945      C1948   1.263       .  A
O1946      C1958   1.271       .  A
O1947      C1960   1.280       .  A
C1948      O1953   1.268       .  A
C1948      C3536   1.483       .  S
C1949      C3566   1.465       .  S
O1951      C1954   1.266       .  A
O1952      C1954   1.262       .  A
C1954      C3619   1.490       .  S
O1955      C1960   1.274       .  A
O1956      C1958   1.275       .  A
C1957      O1959   1.269       .  A
C1957      C3546   1.486       .  S
C1958      C3669   1.468       .  S
C1960      C3556   1.473       .  S
Fe1961     O1967   2.062       .  S
Fe1961     O1974   2.051       .  S
Fe1961     O1966   2.049       .  S
Fe1961     O1972   1.956       .  S
Fe1962     O1973   2.089       .  S
Fe1962     O1978   2.076       .  S
Fe1962     O1972   1.965       .  S
Fe1963     O1981   2.080       .  S
Fe1963     O1968   2.055       .  S
Fe1963     O1975   2.085       .  S
Fe1963     O1964   2.080       .  S
Fe1963     O1972   1.955       .  S
O1964      C1971   1.276       .  A
O1966      C1971   1.271       .  A
O1967      C1970   1.264       .  A
O1968      C1980   1.271       .  A
O1969      C1982   1.277       .  A
C1970      O1975   1.268       .  A
C1970      C3486   1.480       .  S
C1971      C3526   1.466       .  S
O1973      C1976   1.267       .  A
O1974      C1976   1.263       .  A
C1976      C3499   1.495       .  S
O1977      C1982   1.273       .  A
O1978      C1980   1.273       .  A
C1979      O1981   1.270       .  A
C1980      C3719   1.462       .  S
C1982      C3516   1.466       .  S
Fe1983     O1999   2.045       .  S
Fe1983     O1989   2.064       .  S
Fe1983     O1996   2.053       .  S
Fe1983     O1988   2.047       .  S
Fe1983     O1994   1.960       .  S
Fe1984     O1987   2.064       .  S
Fe1984     O1991   2.089       .  S
Fe1984     O1995   2.085       .  S
Fe1984     O2000   2.087       .  S
Fe1984     O1994   1.969       .  S
Fe1985     O2003   2.076       .  S
Fe1985     O1997   2.084       .  S
Fe1985     O1994   1.961       .  S
O1986      C1993   1.276       .  A
O1987      C2001   1.269       .  A
O1989      C1992   1.264       .  A
O1991      C2004   1.280       .  A
C1992      O1997   1.267       .  A
C1992      C3446   1.478       .  S
C1993      C3479   1.466       .  S
O1995      C1998   1.266       .  A
O1996      C1998   1.263       .  A
C1998      C3496   1.494       .  S
O1999      C2004   1.275       .  A
O2000      C2002   1.276   1_556  A
C2001      O2003   1.269       .  A
C2001      C3456   1.490       .  S
C2004      C3466   1.474       .  S
Fe2005     O2021   2.065       .  S
Fe2005     O2011   2.045       .  S
Fe2005     O2018   2.053       .  S
Fe2005     O2010   2.052       .  S
Fe2005     O2016   1.951       .  S
Fe2006     O2009   2.073       .  S
Fe2006     O2013   2.083       .  S
Fe2006     O2017   2.074       .  S
Fe2006     O2022   2.055       .  S
Fe2006     O2016   1.952       .  S
Fe2007     O2025   2.068       .  S
Fe2007     O2012   2.085       .  S
Fe2007     O2019   2.096       .  S
Fe2007     O2008   2.086       .  S
Fe2007     O2016   1.960       .  S
O2008      C2015   1.266       .  A
O2009      C2023   1.269       .  A
O2010      C2015   1.263       .  A
O2011      C2014   1.275       .  A
O2012      C2024   1.276       .  A
O2013      C2026   1.269       .  A
C2014      O2019   1.281       .  A
C2014      C3416   1.472       .  S
C2015      C3406   1.488       .  S
O2017      C2020   1.274       .  A
O2018      C2020   1.271       .  A
C2020      C3426   1.465       .  S
O2021      C2026   1.265       .  A
O2022      C2024   1.272       .  A
C2023      O2025   1.270       .  A
C2023      C3449   1.488       .  S
C2024      C3436   1.467       .  S
C2026      C3396   1.481       .  S
Fe2027     O2043   2.049       .  S
Fe2027     O2033   2.047       .  S
Fe2027     O2040   2.048       .  S
Fe2027     O2032   2.046       .  S
Fe2027     O2038   1.958       .  S
Fe2028     O2031   2.077       .  S
Fe2028     O2035   2.092       .  S
Fe2028     O2039   2.077       .  S
Fe2028     O2044   2.057       .  S
Fe2028     O2038   1.966       .  S
Fe2029     O2047   2.063       .  S
Fe2029     O2034   2.076       .  S
Fe2029     O2041   2.080       .  S
Fe2029     O2030   2.083       .  S
Fe2029     O2038   1.975       .  S
O2030      C2037   1.266       .  A
O2031      C2045   1.270       .  A
O2032      C2037   1.262       .  A
O2033      C2036   1.273       .  A
O2034      C2046   1.273       .  A
O2035      C2048   1.269       .  A
C2036      O2041   1.277       .  A
C2036      C3356   1.465       .  S
C2037      C3409   1.487       .  S
O2039      C2042   1.275       .  A
O2040      C2042   1.269       .  A
C2042      C3366   1.466       .  S
O2043      C2048   1.263       .  A
O2044      C2046   1.271       .  A
C2045      O2047   1.269       .  A
C2045      C3386   1.489       .  S
C2046      C3376   1.463       .  S
C2048      C3346   1.486       .  S
Fe2049     O2065   2.063       .  S
Fe2049     O2055   2.043       .  S
Fe2049     O2062   2.047       .  S
Fe2049     O2054   2.053       .  S
Fe2049     O2060   1.953       .  S
Fe2050     O2053   2.071       .  S
Fe2050     O2057   2.087       .  S
Fe2050     O2061   2.074       .  S
Fe2050     O2066   2.056       .  S
Fe2050     O2060   1.958       .  S
Fe2051     O2069   2.062       .  S
Fe2051     O2056   2.083       .  S
Fe2051     O2063   2.092       .  S
Fe2051     O2052   2.081       .  S
Fe2051     O2060   1.965       .  S
O2052      C2059   1.265       .  A
O2053      C2067   1.269       .  A
O2054      C2059   1.263       .  A
O2055      C2058   1.274       .  A
O2056      C2068   1.275       .  A
O2057      C2070   1.268       .  A
C2058      O2063   1.280       .  A
C2058      C3529   1.470       .  S
C2059      C3329   1.489       .  S
O2061      C2064   1.275       .  A
O2062      C2064   1.271       .  A
C2064      C3519   1.464       .  S
O2065      C2070   1.265       .  A
O2066      C2068   1.271       .  A
C2067      O2069   1.269       .  A
C2067      C3336   1.486       .  S
C2068      C3316   1.468       .  S
C2070      C3706   1.484       .  S
Fe2071     O2087   2.060       .  S
Fe2071     O2077   2.049       .  S
Fe2071     O2084   2.051       .  S
Fe2071     O2076   2.049       .  S
Fe2071     O2082   1.960       .  S
Fe2072     O2075   2.069       .  S
Fe2072     O2079   2.079       .  S
Fe2072     O2083   2.072       .  S
Fe2072     O2088   2.050       .  S
Fe2072     O2082   1.962       .  S
Fe2073     O2091   2.069       .  S
Fe2073     O2078   2.082       .  S
Fe2073     O2085   2.084       .  S
Fe2073     O2074   2.084       .  S
Fe2073     O2082   1.973       .  S
O2074      C2081   1.267       .  A
O2075      C2089   1.268       .  A
O2076      C2081   1.263       .  A
O2077      C2080   1.274       .  A
O2078      C2090   1.274       .  A
O2079      C2092   1.267       .  A
C2080      O2085   1.278       .  A
C2080      C3476   1.471       .  S
C2081      C3326   1.489       .  S
O2083      C2086   1.274       .  A
O2084      C2086   1.270       .  A
C2086      C3469   1.463       .  S
O2087      C2092   1.264       .  A
O2088      C2090   1.269       .  A
C2089      O2091   1.270       .  A
C2089      C3306   1.488       .  S
C2090      C3439   1.464       .  S
C2092      C3629   1.478       .  S
Fe2093     O2109   2.058       .  S
Fe2093     O2106   2.049       .  S
Fe2093     O2098   2.052       .  S
Fe2093     O2104   1.959       .  S
Fe2094     O2097   2.074       .  S
Fe2094     O2101   2.081       .  S
Fe2094     O2105   2.073       .  S
Fe2094     O2110   2.055       .  S
Fe2094     O2104   1.962       .  S
Fe2095     O2113   2.071       .  S
Fe2095     O2100   2.077       .  S
Fe2095     O2096   2.085       .  S
Fe2095     O2104   1.968       .  S
O2096      C2103   1.267       .  A
O2097      C2111   1.269       .  A
O2098      C2103   1.263       .  A
O2099      C2102   1.274       .  A
O2100      C2112   1.273       .  A
O2101      C2114   1.267       .  A
C2102      O2107   1.277       .  A
C2102      C3286   1.470       .  S
C2103      C3276   1.492       .  S
O2105      C2108   1.275       .  A
O2106      C2108   1.270       .  A
C2108      C3296   1.468       .  S
O2109      C2114   1.264       .  A
O2110      C2112   1.270       .  A
C2111      O2113   1.271       .  A
C2111      C3489   1.490       .  S
C2112      C3319   1.463       .  S
C2114      C3266   1.477       .  S
Fe2115     O2131   2.059       .  S
Fe2115     O2121   2.042       .  S
Fe2115     O2128   2.044       .  S
Fe2115     O2120   2.050       .  S
Fe2115     O2126   1.955       .  S
Fe2116     O2119   2.073       .  S
Fe2116     O2123   2.086       .  S
Fe2116     O2132   2.054       .  S
Fe2116     O2126   1.960       .  S
Fe2117     O2135   2.072       .  S
Fe2117     O2122   2.077       .  S
Fe2117     O2129   2.085       .  S
Fe2117     O2118   2.087       .  S
Fe2117     O2126   1.965       .  S
O2118      C2125   1.267       .  A
O2119      C2133   1.269       .  A
O2120      C2125   1.262       .  A
O2121      C2124   1.274       .  A
O2122      C2134   1.273       .  A
O2123      C2136   1.268       .  A
C2124      O2129   1.279       .  A
C2124      C3246   1.469       .  S
C2125      C3279   1.493       .  S
O2127      C2130   1.273       .  A
C2130      C3256   1.463       .  S
O2131      C2136   1.264       .  A
O2132      C2134   1.271       .  A
C2133      O2135   1.271       .  A
C2133      C3239   1.491       .  S
C2136      C3226   1.481       .  S
Fe2137     O2153   2.041       .  S
Fe2137     O2143   2.066       .  S
Fe2137     O2150   2.055       .  S
Fe2137     O2142   2.045       .  S
Fe2137     O2148   1.951       .  S
Fe2138     O2141   2.065       .  S
Fe2138     O2145   2.084       .  S
Fe2138     O2149   2.079       .  S
Fe2138     O2154   2.078       .  S
Fe2138     O2148   1.960       .  S
Fe2139     O2157   2.077       .  S
Fe2139     O2144   2.051       .  S
Fe2139     O2151   2.083       .  S
Fe2139     O2140   2.075       .  S
Fe2139     O2148   1.951       .  S
O2140      C2147   1.275       .  A
O2141      C2155   1.270       .  A
O2142      C2147   1.270       .  A
O2143      C2146   1.265       .  A
O2144      C2156   1.270       .  A
O2145      C2158   1.278       .  A
C2146      O2151   1.268       .  A
C2146      C3389   1.481       .  S
C2147      C3249   1.460       .  S
O2149      C2152   1.266       .  A
O2150      C2152   1.264       .  A
C2152      C3196   1.489       .  S
O2153      C2158   1.273       .  A
O2154      C2156   1.273       .  A
C2155      O2157   1.270       .  A
C2155      C3206   1.489       .  S
C2156      C3216   1.462       .  S
C2158      C3259   1.465       .  S
Fe2159     O2175   2.040       .  S
Fe2159     O2165   2.055       .  S
Fe2159     O2172   2.042       .  S
Fe2159     O2164   2.045       .  S
Fe2159     O2170   1.956       .  S
Fe2160     O2163   2.067       .  S
Fe2160     O2167   2.091       .  S
Fe2160     O2171   2.087       .  S
Fe2160     O2176   2.087       .  S
Fe2160     O2170   1.969       .  S
Fe2161     O2179   2.068       .  S
Fe2161     O2166   2.053       .  S
Fe2161     O2173   2.082       .  S
Fe2161     O2162   2.072       .  S
Fe2161     O2170   1.958       .  S
O2162      C2169   1.274       .  A
O2163      C2177   1.270       .  A
O2164      C2169   1.270       .  A
O2165      C2168   1.263       .  A
O2166      C2178   1.270       .  A
O2167      C2180   1.279       .  A
C2168      O2173   1.267       .  A
C2168      C3339   1.478       .  S
C2169      C3289   1.461       .  S
O2171      C2174   1.267       .  A
O2172      C2174   1.261       .  A
C2174      C3199   1.489       .  S
O2175      C2180   1.273       .  A
O2176      C2178   1.275       .  A
C2177      O2179   1.268       .  A
C2177      C3186   1.487   1_455  S
C2178      C3176   1.468       .  S
C2180      C3299   1.466       .  S
Fe2181     O2197   2.046       .  S
Fe2181     O2187   2.058       .  S
Fe2181     O2194   2.046       .  S
Fe2181     O2186   2.048       .  S
Fe2181     O2192   1.957       .  S
Fe2182     O2185   2.069       .  S
Fe2182     O2189   2.084       .  S
Fe2182     O2193   2.087       .  S
Fe2182     O2198   2.086       .  S
Fe2182     O2192   1.969       .  S
Fe2183     O2201   2.067       .  S
Fe2183     O2188   2.057       .  S
Fe2183     O2195   2.081       .  S
Fe2183     O2184   2.069       .  S
Fe2183     O2192   1.963       .  S
O2184      C2191   1.273       .  A
O2185      C2199   1.270       .  A
O2186      C2191   1.270       .  A
O2187      C2190   1.264       .  A
O2188      C2200   1.271       .  A
O2189      C2202   1.279       .  A
C2190      O2195   1.267       .  A
C2190      C3116   1.479       .  S
C2191      C3146   1.467       .  S
O2193      C2196   1.267       .  A
O2194      C2196   1.262       .  A
C2196      C3156   1.492       .  S
O2197      C2202   1.275       .  A
O2198      C2200   1.275       .  A
C2199      O2201   1.267       .  A
C2199      C3166   1.487       .  S
C2200      C3126   1.470       .  S
C2202      C3136   1.472       .  S
Fe2203     O2219   2.046       .  S
Fe2203     O2209   2.057       .  S
Fe2203     O2216   2.048       .  S
Fe2203     O2208   2.048       .  S
Fe2203     O2214   1.959       .  S
Fe2204     O2207   2.070       .  S
Fe2204     O2211   2.079       .  S
Fe2204     O2215   2.087       .  S
Fe2204     O2220   2.072       .  S
Fe2204     O2214   1.972       .  S
Fe2205     O2223   2.071       .  S
Fe2205     O2210   2.057       .  S
Fe2205     O2217   2.085       .  S
Fe2205     O2206   2.071       .  S
Fe2205     O2214   1.964       .  S
O2206      C2213   1.275       .  A
O2207      C2221   1.271       .  A
O2208      C2213   1.270       .  A
O2209      C2212   1.263       .  A
O2210      C2222   1.270       .  A
O2211      C2224   1.277       .  A
C2212      O2217   1.267       .  A
C2212      C3086   1.481       .  S
C2213      C3106   1.464       .  S
O2215      C2218   1.267       .  A
O2216      C2218   1.262       .  A
C2218      C3159   1.493       .  S
O2219      C2224   1.274       .  A
O2220      C2222   1.271       .  A
C2221      O2223   1.269       .  A
C2221      C3229   1.488       .  S
C2222      C3219   1.463       .  S
C2224      C3096   1.465       .  S
Fe2225     O2241   2.039       .  S
Fe2225     O2231   2.060       .  S
Fe2225     O2238   2.044       .  S
Fe2225     O2230   2.043       .  S
Fe2225     O2236   1.953       .  S
Fe2226     O2229   2.074       .  S
Fe2226     O2233   2.095       .  S
Fe2226     O2237   2.096       .  S
Fe2226     O2242   2.087       .  S
Fe2226     O2236   1.963       .  S
Fe2227     O2245   2.076       .  S
Fe2227     O2239   2.090       .  S
Fe2227     O2236   1.954       .  S
O2228      C2235   1.276       .  A
O2229      C2243   1.272       .  A
O2231      C2234   1.263       .  A
O2233      C2246   1.280       .  A
C2234      O2239   1.268       .  A
C2234      C3036   1.483       .  S
C2235      C3079   1.460       .  S
O2237      C2240   1.268       .  A
O2238      C2240   1.262       .  A
C2240      C3046   1.495       .  S
O2241      C2246   1.273       .  A
O2242      C2244   1.275       .  A
C2243      O2245   1.270       .  A
C2243      C3056   1.491       .  S
C2246      C3066   1.471       .  S
Fe2247     O2253   2.065       .  S
Fe2247     O2260   2.054       .  S
Fe2247     O2252   2.047       .  S
Fe2247     O2258   1.954       .  S
Fe2248     O2259   2.087       .  S
Fe2248     O2264   2.086       .  S
Fe2248     O2258   1.965       .  S
Fe2249     O2267   2.071       .  S
Fe2249     O2254   2.057       .  S
Fe2249     O2261   2.080       .  S
Fe2249     O2250   2.072       .  S
Fe2249     O2258   1.957       .  S
O2250      C2257   1.274       .  A
O2252      C2257   1.269       .  A
O2253      C2256   1.266       .  A
O2254      C2266   1.271       .  A
O2255      C2268   1.279       .  A
C2256      O2261   1.267       .  A
C2256      C3006   1.479       .  S
C2257      C3029   1.464       .  S
O2259      C2262   1.267       .  A
O2260      C2262   1.265       .  A
C2262      C3049   1.493       .  S
O2263      C2268   1.273       .  A
O2264      C2266   1.275       .  A
C2265      O2267   1.269       .  A
C2266      C3179   1.468       .  S
C2268      C3016   1.473       .  S
Fe2269     O2285   2.052       .  S
Fe2269     O2275   2.040       .  S
Fe2269     O2282   2.047       .  S
Fe2269     O2274   2.043       .  S
Fe2269     O2280   1.953       .  S
Fe2270     O2273   2.075       .  S
Fe2270     O2277   2.085       .  S
Fe2270     O2281   2.079       .  S
Fe2270     O2286   2.056       .  S
Fe2270     O2280   1.954       .  S
Fe2271     O2289   2.064       .  S
Fe2271     O2276   2.080       .  S
Fe2271     O2283   2.090       .  S
Fe2271     O2272   2.081       .  S
Fe2271     O2280   1.964       .  S
O2272      C2279   1.266       .  A
O2273      C2287   1.271       .  A
O2274      C2279   1.261       .  A
O2275      C2278   1.274       .  A
O2276      C2288   1.273       .  A
O2277      C2290   1.267       .  A
C2278      O2283   1.279       .  A
C2278      C3026   1.468       .  S
C2279      C2986   1.486       .  S
O2281      C2284   1.277       .  A
O2282      C2284   1.271       .  A
C2284      C3019   1.463       .  S
O2285      C2290   1.262       .  A
O2286      C2288   1.270       .  A
C2287      O2289   1.271       .  A
C2287      C2996   1.488       .  S
C2288      C2976   1.466       .  S
C2290      C3189   1.478       .  S
Fe2291     O2307   2.056       .  S
Fe2291     O2297   2.043       .  S
Fe2291     O2304   2.046       .  S
Fe2291     O2296   2.045       .  S
Fe2291     O2302   1.959       .  S
Fe2292     O2295   2.081       .  S
Fe2292     O2299   2.085       .  S
Fe2292     O2303   2.077       .  S
Fe2292     O2308   2.055       .  S
Fe2292     O2302   1.960       .  S
Fe2293     O2311   2.067       .  S
Fe2293     O2298   2.079       .  S
Fe2293     O2305   2.083       .  S
Fe2293     O2294   2.077       .  S
Fe2293     O2302   1.969       .  S
O2294      C2301   1.266       .  A
O2295      C2309   1.271       .  A
O2296      C2301   1.263       .  A
O2297      C2300   1.273       .  A
O2298      C2310   1.273       .  A
O2299      C2312   1.269       .  A
C2300      O2305   1.277       .  A
C2300      C3076   1.470       .  S
C2301      C2989   1.486       .  S
O2303      C2306   1.275       .  A
O2304      C2306   1.269       .  A
C2306      C3069   1.466       .  S
O2307      C2312   1.264       .  A
O2308      C2310   1.270       .  A
C2309      O2311   1.271       .  A
C2309      C3579   1.493       .  S
C2310      C2966   1.464       .  S
C2312      C3169   1.479       .  S
Fe2313     O2329   2.057       .  S
Fe2313     O2319   2.042       .  S
Fe2313     O2326   2.049       .  S
Fe2313     O2318   2.041       .  S
Fe2313     O2324   1.954       .  S
Fe2314     O2317   2.077       .  S
Fe2314     O2321   2.087       .  S
Fe2314     O2325   2.078       .  S
Fe2314     O2330   2.054       .  S
Fe2314     O2324   1.958       .  S
Fe2315     O2333   2.069       .  S
Fe2315     O2320   2.085       .  S
Fe2315     O2327   2.093       .  S
Fe2315     O2316   2.089       .  S
Fe2315     O2324   1.969       .  S
O2316      C2323   1.267       .  A
O2317      C2331   1.269       .  A
O2318      C2323   1.261       .  A
O2319      C2322   1.274       .  A
O2320      C2332   1.275       .  A
O2321      C2334   1.269       .  A
C2322      O2327   1.280       .  A
C2322      C3599   1.471       .  S
C2323      C2959   1.491       .  S
O2325      C2328   1.275       .  A
O2326      C2328   1.270       .  A
C2328      C3589   1.468       .  S
O2329      C2334   1.264       .  A
O2330      C2332   1.271       .  A
C2331      O2333   1.270       .  A
C2331      C3039   1.491       .  S
C2332      C2969   1.467       .  S
C2334      C3459   1.482       .  S
Fe2335     O2351   2.057       .  S
Fe2335     O2341   2.043       .  S
Fe2335     O2348   2.051       .  S
Fe2335     O2340   2.047       .  S
Fe2335     O2346   1.954       .  S
Fe2336     O2339   2.080       .  S
Fe2336     O2343   2.087       .  S
Fe2336     O2347   2.080       .  S
Fe2336     O2352   2.055       .  S
Fe2336     O2346   1.959       .  S
Fe2337     O2355   2.063       .  S
Fe2337     O2342   2.078       .  S
Fe2337     O2349   2.087       .  S
Fe2337     O2338   2.083       .  S
Fe2337     O2346   1.969       .  S
O2338      C2345   1.266       .  A
O2339      C2353   1.270       .  A
O2340      C2345   1.263       .  A
O2341      C2344   1.274       .  A
O2342      C2354   1.274       .  A
O2343      C2356   1.268       .  A
C2344      O2349   1.278       .  A
C2344      C3569   1.468       .  S
C2345      C2956   1.490       .  S
O2347      C2350   1.276       .  A
O2348      C2350   1.271       .  A
C2350      C3559   1.469       .  S
O2351      C2356   1.264       .  A
O2352      C2354   1.271       .  A
C2353      O2355   1.270       .  A
C2353      C2946   1.490       .  S
C2354      C2936   1.464       .  S
C2356      C3679   1.484       .  S
Fe2357     O2373   2.060       .  S
Fe2357     O2363   2.043       .  S
Fe2357     O2370   2.045       .  S
Fe2357     O2362   2.050       .  S
Fe2357     O2368   1.956       .  S
Fe2358     O2361   2.073       .  S
Fe2358     O2365   2.083       .  S
Fe2358     O2374   2.052       .  S
Fe2358     O2368   1.958       .  S
Fe2359     O2377   2.068       .  S
Fe2359     O2364   2.081       .  S
Fe2359     O2371   2.086       .  S
Fe2359     O2360   2.086       .  S
Fe2359     O2368   1.968       .  S
O2360      C2367   1.266       .  A
O2361      C2375   1.269       .  A
O2362      C2367   1.263       .  A
O2363      C2366   1.274       .  A
O2364      C2376   1.274       .  A
O2365      C2378   1.268       .  A
C2366      O2371   1.279       .  A
C2366      C2916   1.469       .  S
C2367      C2909   1.493       .  S
O2369      C2372   1.275       .  A
C2372      C2926   1.463       .  S
O2373      C2378   1.264       .  A
O2374      C2376   1.271       .  A
C2375      O2377   1.270       .  A
C2375      C3539   1.490       .  S
C2378      C2896   1.479       .  S
Fe2379     O2395   2.067       .  S
Fe2379     O2392   2.046       .  S
Fe2379     O2384   2.052       .  S
Fe2379     O2390   1.952       .  S
Fe2380     O2383   2.075       .  S
Fe2380     O2387   2.087       .  S
Fe2380     O2391   2.078       .  S
Fe2380     O2396   2.056       .  S
Fe2380     O2390   1.953       .  S
Fe2381     O2399   2.064       .  S
Fe2381     O2386   2.085       .  S
Fe2381     O2382   2.086       .  S
Fe2381     O2390   1.962       .  S
O2382      C2389   1.267       .  A
O2383      C2397   1.270       .  A
O2384      C2389   1.263       .  A
O2385      C2388   1.274       .  A
O2386      C2398   1.275       .  A
O2387      C2400   1.268       .  A
C2388      O2393   1.279       .  A
C2388      C2876   1.467       .  S
C2389      C2906   1.492       .  S
O2391      C2394   1.277       .  A
O2392      C2394   1.271       .  A
C2394      C2886   1.466       .  S
O2395      C2400   1.264       .  A
O2396      C2398   1.271       .  A
C2397      O2399   1.270       .  A
C2397      C3009   1.488       .  S
C2398      C2979   1.468       .  S
C2400      C2866   1.484       .  S
Fe2401     O2417   2.050       .  S
Fe2401     O2407   2.045       .  S
Fe2401     O2414   2.045       .  S
Fe2401     O2406   2.042       .  S
Fe2401     O2412   1.963       .  S
Fe2402     O2405   2.074       .  S
Fe2402     O2409   2.092       .  S
Fe2402     O2413   2.072       .  S
Fe2402     O2418   2.058       .  S
Fe2402     O2412   1.966       .  S
Fe2403     O2421   2.075       .  S
Fe2403     O2408   2.079       .  S
Fe2403     O2415   2.082       .  S
Fe2403     O2404   2.089       .  S
Fe2403     O2412   1.976       .  S
O2404      C2411   1.267       .  A
O2405      C2419   1.270       .  A
O2406      C2411   1.261       .  A
O2407      C2410   1.273       .  A
O2408      C2420   1.273       .  A
O2409      C2422   1.269       .  A
C2410      O2415   1.277       .  A
C2410      C2836   1.465       .  S
C2411      C2826   1.492       .  S
O2413      C2416   1.274       .  A
O2414      C2416   1.269       .  A
C2416      C2846   1.461       .  S
O2417      C2422   1.262       .  A
O2418      C2420   1.270       .  A
C2419      O2421   1.272       .  A
C2419      C3689   1.492       .  S
C2420      C2856   1.466       .  S
C2422      C2816   1.483       .  S
Fe2423     O2439   2.066       .  S
Fe2423     O2429   2.045       .  S
Fe2423     O2436   2.050       .  S
Fe2423     O2428   2.056       .  S
Fe2423     O2434   1.954       .  S
Fe2424     O2427   2.073       .  S
Fe2424     O2431   2.082       .  S
Fe2424     O2435   2.074       .  S
Fe2424     O2440   2.058       .  S
Fe2424     O2434   1.955       .  S
Fe2425     O2443   2.060       .  S
Fe2425     O2430   2.082       .  S
Fe2425     O2437   2.086       .  S
Fe2425     O2426   2.081       .  S
Fe2425     O2434   1.963       .  S
O2426      C2433   1.266       .  A
O2427      C2441   1.269       .  A
O2428      C2433   1.264       .  A
O2429      C2432   1.275       .  A
O2430      C2442   1.274       .  A
O2431      C2444   1.266       .  A
C2432      O2437   1.279       .  A
C2432      C2799   1.470       .  S
C2433      C2829   1.492       .  S
O2435      C2438   1.276       .  A
O2436      C2438   1.272       .  A
C2438      C2806   1.464       .  S
O2439      C2444   1.264       .  A
O2440      C2442   1.271       .  A
C2441      O2443   1.269       .  A
C2441      C3119   1.486       .  S
C2442      C2786   1.469       .  S
C2444      C2776   1.481       .  S
Fe2445     O2461   2.060       .  S
Fe2445     O2458   2.048       .  S
Fe2445     O2450   2.053       .  S
Fe2445     O2456   1.956       .  S
Fe2446     O2449   2.072       .  S
Fe2446     O2453   2.091       .  S
Fe2446     O2457   2.073       .  S
Fe2446     O2462   2.061       .  S
Fe2446     O2456   1.956       .  S
Fe2447     O2465   2.066       .  S
Fe2447     O2452   2.081       .  S
Fe2447     O2448   2.080       .  S
Fe2447     O2456   1.965       .  S
O2448      C2455   1.265       .  A
O2449      C2463   1.269       .  A
O2450      C2455   1.263       .  A
O2451      C2454   1.273       .  A
O2452      C2464   1.274       .  A
O2453      C2466   1.269       .  A
C2454      O2459   1.278       .  A
C2454      C3739   1.471       .  S
C2455      C2756   1.486       .  S
O2457      C2460   1.275       .  A
O2458      C2460   1.271       .  A
C2460      C3729   1.463       .  S
O2461      C2466   1.264       .  A
O2462      C2464   1.271       .  A
C2463      O2465   1.270       .  A
C2463      C2766   1.487   1_455  S
C2464      C2859   1.467       .  S
C2466      C3506   1.485       .  S
Fe2467     O2483   2.054       .  S
Fe2467     O2473   2.045       .  S
Fe2467     O2480   2.046       .  S
Fe2467     O2472   2.045       .  S
Fe2467     O2478   1.963       .  S
Fe2468     O2471   2.076       .  S
Fe2468     O2475   2.082       .  S
Fe2468     O2484   2.056       .  S
Fe2468     O2478   1.963       .  S
Fe2469     O2487   2.065       .  S
Fe2469     O2474   2.082       .  S
Fe2469     O2481   2.080       .  S
Fe2469     O2470   2.081       .  S
Fe2469     O2478   1.972       .  S
O2470      C2477   1.266       .  A
O2471      C2485   1.270       .  A
O2472      C2477   1.262       .  A
O2473      C2476   1.273       .  A
O2474      C2486   1.274       .  A
O2475      C2488   1.267       .  A
C2476      O2481   1.277       .  A
C2476      C3659   1.468       .  S
C2477      C2759   1.485       .  S
O2479      C2482   1.276       .  A
C2482      C3649   1.462       .  S
O2483      C2488   1.263       .  A
O2484      C2486   1.270       .  A
C2485      O2487   1.270       .  A
C2485      C3089   1.489       .  S
C2488      C3549   1.477       .  S
Fe2489     O2505   2.060       .  S
Fe2489     O2495   2.042       .  S
Fe2489     O2502   2.047       .  S
Fe2489     O2494   2.054       .  S
Fe2489     O2500   1.955       .  S
Fe2490     O2493   2.073       .  S
Fe2490     O2497   2.089       .  S
Fe2490     O2501   2.075       .  S
Fe2490     O2506   2.059       .  S
Fe2490     O2500   1.955       .  S
Fe2491     O2509   2.065       .  S
Fe2491     O2496   2.078       .  S
Fe2491     O2503   2.085       .  S
Fe2491     O2492   2.083       .  S
Fe2491     O2500   1.962       .  S
O2492      C2499   1.267       .  A
O2493      C2507   1.270       .  A
O2494      C2499   1.263       .  A
O2495      C2498   1.274       .  A
O2496      C2508   1.272       .  A
O2497      C2510   1.267       .  A
C2498      O2503   1.278       .  A
C2498      C3149   1.463       .  S
C2499      C2726   1.491       .  S
O2501      C2504   1.277       .  A
O2502      C2504   1.271       .  A
C2504      C3139   1.459       .  S
O2505      C2510   1.262       .  A
O2506      C2508   1.270       .  A
C2507      O2509   1.271       .  A
C2507      C2736   1.487       .  S
C2508      C2789   1.466       .  S
C2510      C3059   1.482       .  S
Fe2511     O2527   2.061       .  S
Fe2511     O2517   2.044       .  S
Fe2511     O2524   2.045       .  S
Fe2511     O2516   2.051       .  S
Fe2511     O2522   1.957       .  S
Fe2512     O2515   2.074       .  S
Fe2512     O2519   2.085       .  S
Fe2512     O2523   2.078       .  S
Fe2512     O2528   2.058       .  S
Fe2512     O2522   1.957       .  S
Fe2513     O2531   2.068       .  S
Fe2513     O2518   2.083       .  S
Fe2513     O2525   2.086       .  S
Fe2513     O2514   2.083       .  S
Fe2513     O2522   1.965       .  S
O2514      C2521   1.266       .  A
O2515      C2529   1.269       .  A
O2516      C2521   1.263       .  A
O2517      C2520   1.274       .  A
O2518      C2530   1.275       .  A
O2519      C2532   1.267       .  A
C2520      O2525   1.279       .  A
C2520      C3109   1.469       .  S
C2521      C2729   1.490       .  S
O2523      C2526   1.276       .  A
O2524      C2526   1.270       .  A
C2526      C3099   1.467       .  S
O2527      C2532   1.264       .  A
O2528      C2530   1.271       .  A
C2529      O2531   1.270       .  A
C2529      C3639   1.491       .  S
C2530      C2749   1.467       .  S
C2532      C3209   1.481       .  S
Fe2533     O2549   2.042       .  S
Fe2533     O2539   2.057       .  S
Fe2533     O2546   2.044       .  S
Fe2533     O2538   2.049       .  S
Fe2533     O2544   1.952       .  S
Fe2534     O2537   2.071       .  S
Fe2534     O2541   2.087       .  S
Fe2534     O2545   2.084       .  S
Fe2534     O2550   2.081       .  S
Fe2534     O2544   1.966       .  S
Fe2535     O2553   2.074       .  S
Fe2535     O2540   2.050       .  S
Fe2535     O2547   2.082       .  S
Fe2535     O2536   2.078       .  S
Fe2535     O2544   1.955       .  S
O2536      C2543   1.276       .  A
O2537      C2551   1.271       .  A
O2538      C2543   1.271       .  A
O2539      C2542   1.264       .  A
O2540      C2552   1.270       .  A
O2541      C2554   1.279       .  A
C2542      O2547   1.267       .  A
C2542      C2999   1.481       .  S
C2543      C2879   1.468       .  S
O2545      C2548   1.266       .  A
O2546      C2548   1.262       .  A
C2548      C2716   1.488       .  S
O2549      C2554   1.274       .  A
O2550      C2552   1.274       .  A
C2551      O2553   1.269       .  A
C2551      C2819   1.491       .  S
C2552      C2706   1.463       .  S
C2554      C2889   1.465       .  S
Fe2555     O2571   2.048       .  S
Fe2555     O2561   2.051       .  S
Fe2555     O2568   2.047       .  S
Fe2555     O2560   2.046       .  S
Fe2555     O2566   1.961       .  S
Fe2556     O2559   2.057       .  S
Fe2556     O2563   2.081       .  S
Fe2556     O2567   2.075       .  S
Fe2556     O2572   2.072       .  S
Fe2556     O2566   1.970       .  S
Fe2557     O2575   2.081       .  S
Fe2557     O2562   2.061       .  S
Fe2557     O2569   2.089       .  S
Fe2557     O2558   2.078       .  S
Fe2557     O2566   1.966       .  S
O2558      C2565   1.276       .  A
O2559      C2573   1.268       .  A
O2560      C2565   1.270       .  A
O2561      C2564   1.262       .  A
O2562      C2574   1.271       .  A
O2563      C2576   1.278       .  A
C2564      O2569   1.268       .  A
C2564      C2949   1.482       .  S
C2565      C2919   1.466       .  S
O2567      C2570   1.263       .  A
O2568      C2570   1.262       .  A
C2570      C2719   1.487       .  S
O2571      C2576   1.274       .  A
O2572      C2574   1.272       .  A
C2573      O2575   1.270       .  A
C2573      C3349   1.491       .  S
C2574      C2696   1.462       .  S
C2576      C2929   1.470       .  S
Fe2577     O2593   2.045       .  S
Fe2577     O2583   2.056       .  S
Fe2577     O2590   2.044       .  S
Fe2577     O2582   2.049       .  S
Fe2577     O2588   1.951       .  S
Fe2578     O2581   2.063       .  S
Fe2578     O2585   2.086       .  S
Fe2578     O2589   2.081       .  S
Fe2578     O2594   2.078       .  S
Fe2578     O2588   1.965       .  S
Fe2579     O2597   2.079       .  S
Fe2579     O2584   2.057       .  S
Fe2579     O2591   2.088       .  S
Fe2579     O2580   2.080       .  S
Fe2579     O2588   1.954       .  S
O2580      C2587   1.277       .  A
O2581      C2595   1.270       .  A
O2582      C2587   1.271       .  A
O2583      C2586   1.263       .  A
O2584      C2596   1.271       .  A
O2585      C2598   1.278       .  A
C2586      O2591   1.268       .  A
C2586      C3309   1.480       .  S
C2587      C3419   1.468       .  S
O2589      C2592   1.266       .  A
O2590      C2592   1.262       .  A
C2592      C2686   1.488       .  S
O2593      C2598   1.274       .  A
O2594      C2596   1.273       .  A
C2595      O2597   1.271       .  A
C2595      C2779   1.489       .  S
C2596      C2676   1.465       .  S
C2598      C3429   1.467       .  S
Fe2599     O2615   2.042       .  S
Fe2599     O2605   2.059       .  S
Fe2599     O2612   2.042       .  S
Fe2599     O2604   2.046       .  S
Fe2599     O2610   1.954       .  S
Fe2600     O2603   2.065       .  S
Fe2600     O2607   2.089       .  S
Fe2600     O2611   2.082       .  S
Fe2600     O2616   2.083       .  S
Fe2600     O2610   1.969       .  S
Fe2601     O2619   2.072       .  S
Fe2601     O2606   2.052       .  S
Fe2601     O2613   2.088       .  S
Fe2601     O2602   2.078       .  S
Fe2601     O2610   1.955       .  S
O2602      C2609   1.275       .  A
O2603      C2617   1.269       .  A
O2604      C2609   1.269       .  A
O2605      C2608   1.264       .  A
O2606      C2618   1.271       .  A
O2607      C2620   1.279       .  A
C2608      O2613   1.269       .  A
C2608      C3236   1.482       .  S
C2609      C3359   1.468       .  S
O2611      C2614   1.265       .  A
O2612      C2614   1.262       .  A
C2614      C2689   1.488       .  S
O2615      C2620   1.273       .  A
O2616      C2618   1.275       .  A
C2617      O2619   1.269       .  A
C2617      C2899   1.487       .  S
C2618      C2699   1.467       .  S
C2620      C3369   1.471       .  S
Fe2621     O2627   2.058       .  S
Fe2621     O2634   2.043       .  S
Fe2621     O2626   2.041       .  S
Fe2621     O2632   1.950       .  S
Fe2622     O2633   2.083       .  S
Fe2622     O2638   2.077       .  S
Fe2622     O2632   1.960       .  S
Fe2623     O2641   2.083       .  S
Fe2623     O2628   2.056       .  S
Fe2623     O2635   2.090       .  S
Fe2623     O2624   2.081       .  S
Fe2623     O2632   1.951       .  S
O2624      C2631   1.277       .  A
O2626      C2631   1.270       .  A
O2627      C2630   1.263       .  A
O2628      C2640   1.270       .  A
O2629      C2642   1.281       .  A
C2630      O2635   1.269       .  A
C2630      C2769   1.483       .  S
C2631      C2839   1.464       .  S
O2633      C2636   1.266       .  A
O2634      C2636   1.261       .  A
C2636      C2666   1.488       .  S
O2637      C2642   1.275       .  A
O2638      C2640   1.273       .  A
C2639      O2641   1.272       .  A
C2640      C2709   1.463       .  S
C2642      C2849   1.471       .  S
Fe2643     O2659   2.046       .  S
Fe2643     O2649   2.055       .  S
Fe2643     O2656   2.047       .  S
Fe2643     O2648   2.051   1_556  S
Fe2643     O2654   1.957       .  S
Fe2644     O2647   2.060       .  S
Fe2644     O2651   2.081       .  S
Fe2644     O2655   2.075       .  S
Fe2644     O2660   2.075       .  S
Fe2644     O2654   1.971       .  S
Fe2645     O2663   2.075       .  S
Fe2645     O2657   2.083       .  S
Fe2645     O2654   1.962       .  S
O2646      C2653   1.273       .  A
O2647      C2661   1.268       .  A
O2649      C2652   1.264       .  A
O2651      C2664   1.277       .  A
C2652      O2657   1.268       .  A
C2652      C2739   1.479       .  S
C2653      C2796   1.464       .  S
O2655      C2658   1.264       .  A
O2656      C2658   1.263       .  A
C2658      C2669   1.487       .  S
O2659      C2664   1.274       .  A
O2660      C2662   1.273   1_556  A
C2661      O2663   1.269       .  A
C2661      C3399   1.488       .  S
C2664      C2809   1.467       .  S
C2665      C2666   1.406       .  A
C2665      C2670   1.388       .  A
C2665      H2671   1.083       .  S
C2666      C2667   1.409       .  A
C2667      C2668   1.410       .  A
C2667      H2672   1.082       .  S
C2668      C2669   1.410       .  A
C2668      H2673   1.082       .  S
C2669      C2670   1.403       .  A
C2670      H2674   1.083       .  S
C2675      C2676   1.403       .  A
C2675      C2680   1.397       .  A
C2675      H2681   1.084       .  S
C2676      C2677   1.402       .  A
C2677      C2678   1.398       .  A
C2677      H2682   1.084       .  S
C2678      C2679   1.403       .  A
C2678      H2683   1.083       .  S
C2679      C2680   1.401       .  A
C2685      C2686   1.405       .  A
C2685      C2690   1.386   1_545  A
C2685      H2691   1.083       .  S
C2686      C2687   1.409       .  A
C2687      C2688   1.411   1_545  A
C2687      H2692   1.082       .  S
C2688      C2689   1.410       .  A
C2688      H2693   1.082       .  S
C2689      C2690   1.404       .  A
C2690      H2694   1.083       .  S
C2695      C2696   1.399       .  A
C2695      C2700   1.393       .  A
C2695      H2701   1.085       .  S
C2696      C2697   1.404       .  A
C2697      C2698   1.401       .  A
C2697      H2702   1.082       .  S
C2698      C2699   1.404       .  A
C2698      H2703   1.084       .  S
C2699      C2700   1.403       .  A
C2700      H2704   1.083       .  S
C2705      C2706   1.402   1_545  A
C2705      C2710   1.398       .  A
C2705      H2711   1.084       .  S
C2706      C2707   1.403       .  A
C2707      C2708   1.396       .  A
C2707      H2712   1.084       .  S
C2708      C2709   1.401   1_565  A
C2708      H2713   1.084       .  S
C2709      C2710   1.404       .  A
C2710      H2714   1.083       .  S
C2715      C2716   1.406       .  A
C2715      C2720   1.389       .  A
C2715      H2721   1.083       .  S
C2716      C2717   1.408       .  A
C2717      C2718   1.410       .  A
C2717      H2722   1.082       .  S
C2718      C2719   1.410       .  A
C2718      H2723   1.082       .  S
C2719      C2720   1.404       .  A
C2720      H2724   1.083       .  S
C2725      C2726   1.406       .  A
C2725      C2730   1.392   1_655  A
C2725      H2731   1.083       .  S
C2726      C2727   1.409       .  A
C2727      C2728   1.410   1_655  A
C2727      H2732   1.082       .  S
C2728      C2729   1.409       .  A
C2728      H2733   1.083       .  S
C2729      C2730   1.405       .  A
C2730      H2734   1.083       .  S
C2735      C2736   1.404       .  A
C2735      C2740   1.392       .  A
C2735      H2741   1.084       .  S
C2736      C2737   1.412       .  A
C2737      C2738   1.407       .  A
C2737      H2742   1.082       .  S
C2738      C2739   1.404       .  A
C2738      H2743   1.083       .  S
C2739      C2740   1.404       .  A
C2740      H2744   1.083       .  S
C2745      C2746   1.402       .  A
C2745      C2750   1.399       .  A
C2746      C2747   1.404       .  A
C2747      C2748   1.399       .  A
C2747      H2752   1.080       .  S
C2748      C2749   1.402       .  A
C2748      H2753   1.085       .  S
C2749      C2750   1.404       .  A
C2750      H2754   1.082       .  S
C2755      C2756   1.409       .  A
C2755      C2760   1.409       .  A
C2755      H2761   1.082       .  S
C2756      C2757   1.405       .  A
C2757      C2758   1.391       .  A
C2757      H2762   1.083       .  S
C2758      C2759   1.404       .  A
C2758      H2763   1.083       .  S
C2759      C2760   1.408       .  A
C2760      H2764   1.082       .  S
C2765      C2770   1.396       .  A
C2765      H2771   1.083       .  S
C2766      C2767   1.411       .  A
C2767      H2772   1.082       .  S
C2768      C2769   1.403       .  A
C2768      H2773   1.083   1_556  S
C2769      C2770   1.406       .  A
C2770      H2774   1.083       .  S
C2775      C2776   1.404       .  A
C2775      C2780   1.395       .  A
C2775      H2781   1.083       .  S
C2776      C2777   1.404       .  A
C2777      C2778   1.407       .  A
C2777      H2782   1.083       .  S
C2778      C2779   1.411       .  A
C2778      H2783   1.082       .  S
C2779      C2780   1.406       .  A
C2780      H2784   1.083       .  S
C2785      C2786   1.403       .  A
C2785      C2790   1.397       .  A
C2785      H2791   1.084       .  S
C2786      C2787   1.403       .  A
C2787      C2788   1.400       .  A
C2787      H2792   1.082       .  S
C2788      C2789   1.403       .  A
C2788      H2793   1.085       .  S
C2789      C2790   1.402       .  A
C2790      H2794   1.083       .  S
C2795      C2796   1.401       .  A
C2795      C2800   1.388       .  A
C2795      H2801   1.082       .  S
C2796      C2797   1.403       .  A
C2797      C2798   1.399       .  A
C2797      H2802   1.084       .  S
C2798      C2799   1.406       .  A
C2798      H2803   1.082       .  S
C2799      C2800   1.403       .  A
C2800      H2804   1.085       .  S
C2805      C2806   1.401       .  A
C2805      C2810   1.387       .  A
C2805      H2811   1.084       .  S
C2806      C2807   1.403       .  A
C2807      C2808   1.400       .  A
C2807      H2812   1.084       .  S
C2808      C2809   1.406       .  A
C2808      H2813   1.083       .  S
C2809      C2810   1.402       .  A
C2810      H2814   1.084       .  S
C2815      C2816   1.404       .  A
C2815      C2820   1.408       .  A
C2815      H2821   1.083       .  S
C2816      C2817   1.406       .  A
C2817      C2818   1.395       .  A
C2817      H2822   1.083       .  S
C2818      C2819   1.405   1_545  A
C2818      H2823   1.083   1_545  S
C2819      C2820   1.412   1_565  A
C2820      H2824   1.082       .  S
C2825      C2826   1.407       .  A
C2825      C2830   1.391       .  A
C2825      H2831   1.083       .  S
C2826      C2827   1.409       .  A
C2827      C2828   1.411       .  A
C2827      H2832   1.083       .  S
C2828      C2829   1.410       .  A
C2828      H2833   1.082       .  S
C2829      C2830   1.405       .  A
C2830      H2834   1.083       .  S
C2835      C2836   1.404       .  A
C2835      C2840   1.398       .  A
C2835      H2841   1.083       .  S
C2836      C2837   1.402       .  A
C2837      C2838   1.389       .  A
C2837      H2842   1.084       .  S
C2838      C2839   1.401       .  A
C2838      H2843   1.083       .  S
C2839      C2840   1.404       .  A
C2840      H2844   1.084       .  S
C2845      C2846   1.401       .  A
C2845      C2850   1.397       .  A
C2845      H2851   1.085       .  S
C2846      C2847   1.400       .  A
C2847      C2848   1.390       .  A
C2847      H2852   1.082       .  S
C2848      C2849   1.405       .  A
C2848      H2853   1.084       .  S
C2849      C2850   1.406       .  A
C2850      H2854   1.081       .  S
C2855      C2856   1.403       .  A
C2855      C2860   1.398       .  A
C2855      H2861   1.082       .  S
C2856      C2857   1.402   1_655  A
C2857      C2858   1.399       .  A
C2857      H2862   1.084       .  S
C2858      C2859   1.404       .  A
C2858      H2863   1.084       .  S
C2859      C2860   1.402   1_455  A
C2860      H2864   1.084       .  S
C2865      C2870   1.408   1_554  A
C2865      H2871   1.084   1_554  S
C2866      C2867   1.405       .  A
C2867      C2868   1.396       .  A
C2867      H2872   1.082       .  S
C2868      C2869   1.406   1_565  A
C2868      H2873   1.084   1_565  S
C2870      H2874   1.082       .  S
C2875      C2876   1.404       .  A
C2875      C2880   1.399       .  A
C2875      H2881   1.083       .  S
C2876      C2877   1.402       .  A
C2877      C2878   1.390       .  A
C2877      H2882   1.083       .  S
C2878      C2879   1.402       .  A
C2878      H2883   1.084       .  S
C2879      C2880   1.404       .  A
C2880      H2884   1.083       .  S
C2885      C2886   1.402       .  A
C2885      C2890   1.387       .  A
C2885      H2891   1.084       .  S
C2886      C2887   1.404       .  A
C2887      C2888   1.399       .  A
C2887      H2892   1.083       .  S
C2888      C2889   1.404       .  A
C2888      H2893   1.084       .  S
C2889      C2890   1.401       .  A
C2890      H2894   1.083       .  S
C2895      C2896   1.405       .  A
C2895      C2900   1.395       .  A
C2895      H2901   1.083       .  S
C2896      C2897   1.403       .  A
C2897      C2898   1.406       .  A
C2897      H2902   1.083       .  S
C2898      C2899   1.411       .  A
C2898      H2903   1.082       .  S
C2899      C2900   1.405       .  A
C2900      H2904   1.084       .  S
C2905      C2906   1.410       .  A
C2905      C2910   1.413       .  A
C2905      H2911   1.082       .  S
C2906      C2907   1.405       .  A
C2907      C2908   1.390       .  A
C2907      H2912   1.083       .  S
C2908      C2909   1.406       .  A
C2908      H2913   1.083       .  S
C2909      C2910   1.410       .  A
C2910      H2914   1.082       .  S
C2915      C2916   1.403       .  A
C2915      C2920   1.389       .  A
C2915      H2921   1.085       .  S
C2916      C2917   1.405       .  A
C2917      C2918   1.399       .  A
C2917      H2922   1.081       .  S
C2918      C2919   1.403       .  A
C2918      H2923   1.085       .  S
C2919      C2920   1.401       .  A
C2920      H2924   1.082       .  S
C2925      C2926   1.401       .  A
C2925      C2930   1.391       .  A
C2925      H2931   1.084       .  S
C2926      C2927   1.402       .  A
C2927      C2928   1.398       .  A
C2927      H2932   1.084       .  S
C2928      C2929   1.405       .  A
C2928      H2933   1.083       .  S
C2929      C2930   1.404       .  A
C2930      H2934   1.084       .  S
C2935      C2936   1.403       .  A
C2935      C2940   1.397       .  A
C2935      H2941   1.084       .  S
C2936      C2937   1.401       .  A
C2937      C2938   1.397       .  A
C2937      H2942   1.084       .  S
C2938      C2939   1.403       .  A
C2938      H2943   1.083       .  S
C2939      C2940   1.401       .  A
C2940      H2944   1.083   1_556  S
C2945      C2946   1.405       .  A
C2945      C2950   1.394       .  A
C2945      H2951   1.083       .  S
C2946      C2947   1.411       .  A
C2947      C2948   1.408       .  A
C2947      H2952   1.083       .  S
C2948      C2949   1.405       .  A
C2948      H2953   1.083       .  S
C2949      C2950   1.404       .  A
C2950      H2954   1.084       .  S
C2955      C2956   1.411       .  A
C2955      C2960   1.413       .  A
C2955      H2961   1.082       .  S
C2956      C2957   1.404       .  A
C2957      C2958   1.387       .  A
C2957      H2962   1.083       .  S
C2958      C2959   1.406       .  A
C2958      H2963   1.083       .  S
C2959      C2960   1.410       .  A
C2960      H2964   1.082       .  S
C2965      C2966   1.401       .  A
C2965      C2970   1.397       .  A
C2965      H2971   1.084       .  S
C2966      C2967   1.403       .  A
C2967      C2968   1.398       .  A
C2967      H2972   1.085       .  S
C2968      C2969   1.402       .  A
C2968      H2973   1.083       .  S
C2969      C2970   1.404       .  A
C2970      H2974   1.084       .  S
C2975      C2976   1.401       .  A
C2975      C2980   1.397       .  A
C2975      H2981   1.084       .  S
C2976      C2977   1.404       .  A
C2977      C2978   1.399       .  A
C2977      H2982   1.082       .  S
C2978      C2979   1.403       .  A
C2978      H2983   1.085       .  S
C2979      C2980   1.404       .  A
C2980      H2984   1.083       .  S
C2985      C2986   1.408       .  A
C2985      C2990   1.409       .  A
C2985      H2991   1.082       .  S
C2986      C2987   1.406       .  A
C2987      C2988   1.387       .  A
C2987      H2992   1.082       .  S
C2988      C2989   1.404       .  A
C2988      H2993   1.083       .  S
C2989      C2990   1.409       .  A
C2990      H2994   1.082       .  S
C2995      C2996   1.411       .  A
C2995      C3000   1.406       .  A
C2995      H3001   1.083       .  S
C2996      C2997   1.405       .  A
C2997      C2998   1.393       .  A
C2997      H3002   1.082       .  S
C2998      C2999   1.405       .  A
C2998      H3003   1.084       .  S
C2999      C3000   1.404       .  A
C3000      H3004   1.082       .  S
C3005      C3006   1.404   1_554  A
C3005      C3010   1.406       .  A
C3005      H3011   1.082       .  S
C3007      C3008   1.394       .  A
C3007      H3012   1.084       .  S
C3008      C3009   1.405       .  A
C3008      H3013   1.083       .  S
C3010      H3014   1.083       .  S
C3015      C3016   1.407       .  A
C3015      C3020   1.400       .  A
C3015      H3021   1.081       .  S
C3016      C3017   1.404       .  A
C3017      C3018   1.389       .  A
C3017      H3022   1.085       .  S
C3018      C3019   1.400       .  A
C3018      H3023   1.082       .  S
C3019      C3020   1.402       .  A
C3020      H3024   1.085       .  S
C3025      C3026   1.402       .  A
C3025      C3030   1.387       .  A
C3025      H3031   1.084       .  S
C3026      C3027   1.406       .  A
C3027      C3028   1.400       .  A
C3027      H3032   1.083       .  S
C3028      C3029   1.404       .  A
C3028      H3033   1.084       .  S
C3029      C3030   1.401       .  A
C3030      H3034   1.084       .  S
C3035      C3036   1.405       .  A
C3035      C3040   1.396       .  A
C3035      H3041   1.083       .  S
C3036      C3037   1.404       .  A
C3037      C3038   1.408       .  A
C3037      H3042   1.083       .  S
C3038      C3039   1.412       .  A
C3038      H3043   1.082       .  S
C3039      C3040   1.405       .  A
C3040      H3044   1.084       .  S
C3045      C3046   1.410       .  A
C3045      C3050   1.415       .  A
C3045      H3051   1.082       .  S
C3046      C3047   1.407       .  A
C3047      C3048   1.388       .  A
C3047      H3052   1.082       .  S
C3048      C3049   1.404       .  A
C3048      H3053   1.083       .  S
C3049      C3050   1.412       .  A
C3050      H3054   1.082       .  S
C3055      C3056   1.412       .  A
C3055      C3060   1.408       .  A
C3055      H3061   1.082       .  S
C3056      C3057   1.405       .  A
C3057      C3058   1.396       .  A
C3057      H3062   1.084       .  S
C3058      C3059   1.405       .  A
C3058      H3063   1.083       .  S
C3059      C3060   1.404       .  A
C3060      H3064   1.084       .  S
C3065      C3066   1.404       .  A
C3065      C3070   1.389       .  A
C3065      H3071   1.082       .  S
C3066      C3067   1.406       .  A
C3067      C3068   1.400       .  A
C3067      H3072   1.080       .  S
C3068      C3069   1.404       .  A
C3068      H3073   1.085       .  S
C3069      C3070   1.400       .  A
C3070      H3074   1.084       .  S
C3075      C3076   1.406       .  A
C3075      C3080   1.398       .  A
C3075      H3081   1.083       .  S
C3076      C3077   1.404       .  A
C3077      C3078   1.388       .  A
C3077      H3082   1.083       .  S
C3078      C3079   1.400       .  A
C3078      H3083   1.085       .  S
C3079      C3080   1.401       .  A
C3080      H3084   1.083       .  S
C3085      C3086   1.404       .  A
C3085      C3090   1.395       .  A
C3085      H3091   1.083       .  S
C3086      C3087   1.404       .  A
C3087      C3088   1.408       .  A
C3087      H3092   1.083       .  S
C3088      C3089   1.411       .  A
C3088      H3093   1.082       .  S
C3089      C3090   1.405       .  A
C3090      H3094   1.083       .  S
C3095      C3096   1.405       .  A
C3095      H3101   1.084       .  S
C3096      C3097   1.402       .  A
C3097      H3102   1.083       .  S
C3098      C3099   1.402       .  A
C3098      H3103   1.085       .  S
C3099      C3100   1.404       .  A
C3100      H3104   1.083       .  S
C3105      C3106   1.402       .  A
C3105      C3110   1.389       .  A
C3105      H3111   1.083       .  S
C3106      C3107   1.402       .  A
C3107      C3108   1.398       .  A
C3107      H3112   1.084       .  S
C3108      C3109   1.406       .  A
C3108      H3113   1.082       .  S
C3109      C3110   1.403       .  A
C3110      H3114   1.084       .  S
C3115      C3116   1.404       .  A
C3115      C3120   1.407       .  A
C3115      H3121   1.082       .  S
C3116      C3117   1.404       .  A
C3117      C3118   1.392       .  A
C3117      H3122   1.084       .  S
C3118      C3119   1.405       .  A
C3118      H3123   1.083       .  S
C3119      C3120   1.411       .  A
C3120      H3124   1.083       .  S
C3125      C3126   1.404       .  A
C3125      C3130   1.398       .  A
C3125      H3131   1.082       .  S
C3126      C3127   1.403       .  A
C3127      C3128   1.401       .  A
C3127      H3132   1.084       .  S
C3128      C3129   1.405       .  A
C3128      H3133   1.082       .  S
C3129      C3130   1.401       .  A
C3135      C3136   1.407       .  A
C3135      C3140   1.399       .  A
C3135      H3141   1.083       .  S
C3136      C3137   1.404       .  A
C3137      C3138   1.388       .  A
C3137      H3142   1.083       .  S
C3138      C3139   1.400       .  A
C3138      H3143   1.085       .  S
C3139      C3140   1.401       .  A
C3140      H3144   1.083       .  S
C3145      C3146   1.404       .  A
C3145      H3151   1.085       .  S
C3146      C3147   1.403       .  A
C3147      C3148   1.388       .  A
C3147      H3152   1.082       .  S
C3149      C3150   1.404   1_556  A
C3150      H3154   1.081   1_554  S
C3155      C3156   1.406       .  A
C3155      C3160   1.391   1_655  A
C3155      H3161   1.083       .  S
C3156      C3157   1.410       .  A
C3157      C3158   1.412   1_655  A
C3157      H3162   1.082       .  S
C3158      C3159   1.410       .  A
C3158      H3163   1.082       .  S
C3159      C3160   1.406       .  A
C3160      H3164   1.083       .  S
C3165      C3166   1.404       .  A
C3165      C3170   1.394       .  A
C3165      H3171   1.084       .  S
C3166      C3167   1.412       .  A
C3167      C3168   1.406       .  A
C3167      H3172   1.082       .  S
C3168      C3169   1.403       .  A
C3168      H3173   1.083       .  S
C3169      C3170   1.405       .  A
C3170      H3174   1.083       .  S
C3175      C3176   1.404       .  A
C3175      C3180   1.398       .  A
C3175      H3181   1.081       .  S
C3176      C3177   1.402   1_455  A
C3177      C3178   1.399       .  A
C3177      H3182   1.084       .  S
C3178      C3179   1.404       .  A
C3178      H3183   1.083       .  S
C3179      C3180   1.402   1_655  A
C3180      H3184   1.084       .  S
C3185      C3186   1.412       .  A
C3185      C3190   1.406       .  A
C3185      H3191   1.082       .  S
C3186      C3187   1.404       .  A
C3187      C3188   1.394       .  A
C3187      H3192   1.084       .  S
C3188      C3189   1.405       .  A
C3188      H3193   1.083       .  S
C3189      C3190   1.403       .  A
C3190      H3194   1.083       .  S
C3195      C3196   1.404       .  A
C3195      C3200   1.388       .  A
C3195      H3201   1.083       .  S
C3196      C3197   1.410       .  A
C3197      C3198   1.411       .  A
C3197      H3202   1.082       .  S
C3198      C3199   1.409       .  A
C3198      H3203   1.082       .  S
C3199      C3200   1.405       .  A
C3200      H3204   1.083       .  S
C3205      C3206   1.411       .  A
C3205      C3210   1.407       .  A
C3205      H3211   1.082       .  S
C3206      C3207   1.405       .  A
C3207      C3208   1.395       .  A
C3207      H3212   1.084       .  S
C3208      C3209   1.405       .  A
C3208      H3213   1.083       .  S
C3209      C3210   1.404       .  A
C3210      H3214   1.084       .  S
C3215      C3216   1.403       .  A
C3215      C3220   1.397       .  A
C3215      H3221   1.083       .  S
C3216      C3217   1.401       .  A
C3217      C3218   1.396       .  A
C3217      H3222   1.084       .  S
C3218      C3219   1.403       .  A
C3218      H3223   1.083       .  S
C3219      C3220   1.401       .  A
C3220      H3224   1.084       .  S
C3225      C3226   1.404       .  A
C3225      C3230   1.408       .  A
C3225      H3231   1.084       .  S
C3226      C3227   1.405       .  A
C3227      C3228   1.394       .  A
C3227      H3232   1.083       .  S
C3228      C3229   1.404       .  A
C3228      H3233   1.084       .  S
C3229      C3230   1.412       .  A
C3230      H3234   1.082       .  S
C3235      C3236   1.405       .  A
C3235      C3240   1.395       .  A
C3235      H3241   1.083       .  S
C3236      C3237   1.404       .  A
C3237      C3238   1.408       .  A
C3237      H3242   1.083       .  S
C3238      C3239   1.412       .  A
C3238      H3243   1.082       .  S
C3239      C3240   1.404       .  A
C3240      H3244   1.084       .  S
C3245      C3246   1.404       .  A
C3245      C3250   1.388       .  A
C3245      H3251   1.084       .  S
C3246      C3247   1.406       .  A
C3247      C3248   1.398       .  A
C3247      H3252   1.083       .  S
C3248      C3249   1.401       .  A
C3248      H3253   1.083       .  S
C3249      C3250   1.400       .  A
C3250      H3254   1.083       .  S
C3255      C3256   1.402       .  A
C3255      C3260   1.388       .  A
C3255      H3261   1.084       .  S
C3256      C3257   1.402       .  A
C3257      C3258   1.397       .  A
C3257      H3262   1.084       .  S
C3258      C3259   1.405       .  A
C3258      H3263   1.083       .  S
C3259      C3260   1.402       .  A
C3260      H3264   1.083       .  S
C3265      C3266   1.404       .  A
C3265      C3270   1.394   1_455  A
C3265      H3271   1.083       .  S
C3266      C3267   1.403       .  A
C3267      H3272   1.083       .  S
C3268      H3273   1.082   1_455  S
C3269      C3270   1.404       .  A
C3270      H3274   1.083       .  S
C3275      C3276   1.409       .  A
C3275      C3280   1.411       .  A
C3275      H3281   1.082       .  S
C3276      C3277   1.406       .  A
C3277      C3278   1.393       .  A
C3277      H3282   1.082       .  S
C3278      C3279   1.407       .  A
C3278      H3283   1.083       .  S
C3279      C3280   1.409       .  A
C3280      H3284   1.082       .  S
C3285      C3286   1.403       .  A
C3285      C3290   1.389       .  A
C3285      H3291   1.085       .  S
C3286      C3287   1.407       .  A
C3287      C3288   1.398       .  A
C3287      H3292   1.081       .  S
C3288      C3289   1.401       .  A
C3288      H3293   1.084       .  S
C3289      C3290   1.401       .  A
C3290      H3294   1.082       .  S
C3295      C3296   1.406       .  A
C3295      C3300   1.401       .  A
C3295      H3301   1.084       .  S
C3296      C3297   1.402       .  A
C3297      C3298   1.387       .  A
C3297      H3302   1.083       .  S
C3298      C3299   1.402       .  A
C3298      H3303   1.085       .  S
C3299      C3300   1.404       .  A
C3300      H3304   1.082       .  S
C3305      C3306   1.404       .  A
C3305      C3310   1.395       .  A
C3305      H3311   1.083       .  S
C3306      C3307   1.411       .  A
C3307      C3308   1.406       .  A
C3307      H3312   1.082       .  S
C3308      C3309   1.403       .  A
C3308      H3313   1.083       .  S
C3309      C3310   1.406       .  A
C3310      H3314   1.083       .  S
C3315      C3316   1.403       .  A
C3315      C3320   1.396       .  A
C3315      H3321   1.084       .  S
C3316      C3317   1.403   1_545  A
C3317      C3318   1.400       .  A
C3317      H3322   1.083       .  S
C3318      C3319   1.403       .  A
C3318      H3323   1.083       .  S
C3319      C3320   1.401   1_565  A
C3320      H3324   1.083       .  S
C3325      C3326   1.409       .  A
C3325      C3330   1.411       .  A
C3325      H3331   1.082       .  S
C3326      C3327   1.405       .  A
C3327      C3328   1.391       .  A
C3327      H3332   1.083       .  S
C3328      C3329   1.405       .  A
C3328      H3333   1.083       .  S
C3329      C3330   1.409       .  A
C3330      H3334   1.082       .  S
C3335      C3336   1.411   1_565  A
C3335      C3340   1.406       .  A
C3335      H3341   1.084       .  S
C3336      C3337   1.405   1_545  A
C3337      C3338   1.393       .  A
C3337      H3342   1.082   1_565  S
C3338      C3339   1.404       .  A
C3338      H3343   1.084       .  S
C3339      C3340   1.404       .  A
C3340      H3344   1.082       .  S
C3345      C3346   1.405       .  A
C3345      C3350   1.391       .  A
C3345      H3351   1.083       .  S
C3346      C3347   1.406       .  A
C3347      C3348   1.411       .  A
C3347      H3352   1.083       .  S
C3348      C3349   1.412       .  A
C3348      H3353   1.082       .  S
C3349      C3350   1.405       .  A
C3350      H3354   1.083       .  S
C3355      C3356   1.402       .  A
C3355      C3360   1.390       .  A
C3355      H3361   1.084       .  S
C3356      C3357   1.403       .  A
C3357      C3358   1.398       .  A
C3357      H3362   1.082       .  S
C3358      C3359   1.404       .  A
C3358      H3363   1.084       .  S
C3359      C3360   1.403       .  A
C3360      H3364   1.083       .  S
C3365      C3366   1.403       .  A
C3365      C3370   1.399   1_556  A
C3365      H3371   1.084       .  S
C3366      C3367   1.401       .  A
C3367      H3372   1.083       .  S
C3368      C3369   1.405       .  A
C3368      H3373   1.084       .  S
C3375      C3376   1.403       .  A
C3375      C3380   1.397       .  A
C3375      H3381   1.083       .  S
C3376      C3377   1.401       .  A
C3377      C3378   1.397       .  A
C3377      H3382   1.084       .  S
C3378      C3379   1.404       .  A
C3378      H3383   1.083       .  S
C3379      C3380   1.401       .  A
C3385      C3386   1.405       .  A
C3385      C3390   1.395       .  A
C3385      H3391   1.083       .  S
C3386      C3387   1.411       .  A
C3387      C3388   1.407       .  A
C3387      H3392   1.083       .  S
C3388      C3389   1.404       .  A
C3388      H3393   1.083       .  S
C3389      C3390   1.404       .  A
C3390      H3394   1.083       .  S
C3395      C3396   1.404       .  A
C3395      C3400   1.407       .  A
C3395      H3401   1.084       .  S
C3396      C3397   1.405       .  A
C3397      C3398   1.394       .  A
C3397      H3402   1.083       .  S
C3398      C3399   1.405       .  A
C3398      H3403   1.084       .  S
C3399      C3400   1.411       .  A
C3400      H3404   1.082       .  S
C3405      C3406   1.410       .  A
C3405      C3410   1.412   1_545  A
C3405      H3411   1.082       .  S
C3406      C3407   1.404       .  A
C3407      C3408   1.389   1_545  A
C3407      H3412   1.083       .  S
C3408      C3409   1.403       .  A
C3408      H3413   1.083       .  S
C3409      C3410   1.410       .  A
C3410      H3414   1.082       .  S
C3415      C3416   1.404       .  A
C3415      H3421   1.083       .  S
C3417      C3418   1.400       .  A
C3417      H3422   1.084       .  S
C3418      C3419   1.405       .  A
C3418      H3423   1.083       .  S
C3419      C3420   1.401       .  A
C3420      H3424   1.085       .  S
C3425      C3426   1.403       .  A
C3425      C3430   1.400       .  A
C3425      H3431   1.084       .  S
C3426      C3427   1.402       .  A
C3427      C3428   1.389       .  A
C3427      H3432   1.082       .  S
C3428      C3429   1.402       .  A
C3428      H3433   1.085       .  S
C3429      C3430   1.406       .  A
C3430      H3434   1.081       .  S
C3435      C3436   1.404       .  A
C3435      C3440   1.397       .  A
C3435      H3441   1.083       .  S
C3436      C3437   1.402       .  A
C3437      C3438   1.398       .  A
C3437      H3442   1.084       .  S
C3438      C3439   1.403       .  A
C3438      H3443   1.083       .  S
C3439      C3440   1.402       .  A
C3440      H3444   1.083       .  S
C3445      C3446   1.404       .  A
C3445      C3450   1.397       .  A
C3445      H3451   1.084       .  S
C3446      C3447   1.403       .  A
C3447      C3448   1.406       .  A
C3447      H3452   1.082       .  S
C3448      C3449   1.411       .  A
C3448      H3453   1.083       .  S
C3449      C3450   1.405       .  A
C3450      H3454   1.083       .  S
C3455      C3456   1.405       .  A
C3455      C3460   1.394       .  A
C3455      H3461   1.084       .  S
C3456      C3457   1.412       .  A
C3457      C3458   1.408       .  A
C3457      H3462   1.082       .  S
C3458      C3459   1.404       .  A
C3458      H3463   1.084       .  S
C3459      C3460   1.405       .  A
C3460      H3464   1.083       .  S
C3465      C3466   1.407       .  A
C3465      C3470   1.400       .  A
C3465      H3471   1.084       .  S
C3466      C3467   1.405       .  A
C3467      C3468   1.389       .  A
C3467      H3472   1.084       .  S
C3468      C3469   1.400       .  A
C3468      H3473   1.084       .  S
C3469      C3470   1.402       .  A
C3470      H3474   1.083       .  S
C3475      C3476   1.403       .  A
C3475      C3480   1.389       .  A
C3475      H3481   1.083       .  S
C3476      C3477   1.406       .  A
C3477      C3478   1.401       .  A
C3477      H3482   1.083       .  S
C3478      C3479   1.403       .  A
C3478      H3483   1.083       .  S
C3479      C3480   1.400       .  A
C3480      H3484   1.084       .  S
C3485      C3490   1.407       .  A
C3485      H3491   1.084       .  S
C3486      C3487   1.405       .  A
C3487      C3488   1.396       .  A
C3487      H3492   1.082       .  S
C3488      H3493   1.084   1_545  S
C3489      C3490   1.412   1_565  A
C3490      H3494   1.082       .  S
C3495      C3496   1.405       .  A
C3495      C3500   1.392       .  A
C3495      H3501   1.083       .  S
C3496      C3497   1.411       .  A
C3497      C3498   1.413       .  A
C3497      H3502   1.082       .  S
C3498      C3499   1.410       .  A
C3498      H3503   1.082       .  S
C3499      C3500   1.406       .  A
C3500      H3504   1.082       .  S
C3505      C3506   1.406       .  A
C3505      C3510   1.395       .  A
C3505      H3511   1.083       .  S
C3506      C3507   1.405       .  A
C3508      H3513   1.082       .  S
C3509      C3510   1.405       .  A
C3510      H3514   1.083       .  S
C3515      C3516   1.403       .  A
C3515      C3520   1.389       .  A
C3515      H3521   1.083       .  S
C3516      C3517   1.404       .  A
C3517      C3518   1.398       .  A
C3517      H3522   1.084       .  S
C3518      C3519   1.403       .  A
C3518      H3523   1.083       .  S
C3519      C3520   1.402       .  A
C3520      H3524   1.085       .  S
C3525      C3526   1.404       .  A
C3525      C3530   1.401       .  A
C3525      H3531   1.083       .  S
C3526      C3527   1.401       .  A
C3527      C3528   1.389       .  A
C3527      H3532   1.084       .  S
C3528      C3529   1.403       .  A
C3528      H3533   1.084       .  S
C3529      C3530   1.406       .  A
C3530      H3534   1.082       .  S
C3535      C3536   1.404       .  A
C3535      C3540   1.407       .  A
C3535      H3541   1.083       .  S
C3536      C3537   1.406       .  A
C3537      C3538   1.395       .  A
C3537      H3542   1.083       .  S
C3538      C3539   1.405       .  A
C3538      H3543   1.084       .  S
C3539      C3540   1.412       .  A
C3540      H3544   1.082       .  S
C3545      C3546   1.411       .  A
C3545      C3550   1.405       .  A
C3545      H3551   1.082       .  S
C3546      C3547   1.405       .  A
C3547      C3548   1.394       .  A
C3547      H3552   1.084       .  S
C3548      C3549   1.404       .  A
C3548      H3553   1.083       .  S
C3549      C3550   1.403       .  A
C3550      H3554   1.084       .  S
C3555      C3556   1.405       .  A
C3555      H3561   1.083       .  S
C3556      C3557   1.404       .  A
C3557      H3562   1.083       .  S
C3558      C3559   1.401       .  A
C3558      H3563   1.085       .  S
C3559      C3560   1.405       .  A
C3560      H3564   1.083       .  S
C3565      C3566   1.401       .  A
C3565      C3570   1.388       .  A
C3565      H3571   1.084       .  S
C3566      C3567   1.403       .  A
C3567      C3568   1.400       .  A
C3567      H3572   1.084       .  S
C3568      C3569   1.405       .  A
C3568      H3573   1.083       .  S
C3569      C3570   1.402       .  A
C3570      H3574   1.084       .  S
C3575      C3576   1.404       .  A
C3575      C3580   1.408       .  A
C3575      H3581   1.083       .  S
C3576      C3577   1.405       .  A
C3577      C3578   1.396       .  A
C3577      H3582   1.083       .  S
C3578      C3579   1.406       .  A
C3578      H3583   1.083       .  S
C3579      C3580   1.412       .  A
C3580      H3584   1.082       .  S
C3585      C3586   1.402       .  A
C3585      C3590   1.389       .  A
C3585      H3591   1.082       .  S
C3586      C3587   1.404       .  A
C3587      C3588   1.401       .  A
C3587      H3592   1.084       .  S
C3588      C3589   1.405       .  A
C3588      H3593   1.083       .  S
C3589      C3590   1.402       .  A
C3590      H3594   1.086       .  S
C3595      C3596   1.405       .  A
C3595      C3600   1.401       .  A
C3595      H3601   1.084       .  S
C3596      C3597   1.402       .  A
C3597      H3602   1.083       .  S
C3598      C3599   1.404       .  A
C3598      H3603   1.085       .  S
C3600      H3604   1.082       .  S
C3605      C3606   1.402       .  A
C3605      C3610   1.398       .  A
C3605      H3611   1.084       .  S
C3606      C3607   1.404       .  A
C3607      C3608   1.401       .  A
C3607      H3612   1.083       .  S
C3608      C3609   1.403       .  A
C3608      H3613   1.084       .  S
C3609      C3610   1.404       .  A
C3610      H3614   1.082       .  S
C3615      C3616   1.404       .  A
C3615      C3620   1.389       .  A
C3615      H3621   1.083       .  S
C3616      C3617   1.410       .  A
C3617      C3618   1.412       .  A
C3617      H3622   1.082       .  S
C3618      C3619   1.410       .  A
C3618      H3623   1.082       .  S
C3619      C3620   1.405       .  A
C3620      H3624   1.083       .  S
C3625      C3626   1.411       .  A
C3625      C3630   1.406       .  A
C3625      H3631   1.082       .  S
C3626      C3627   1.405       .  A
C3627      C3628   1.394       .  A
C3627      H3632   1.084       .  S
C3628      C3629   1.404       .  A
C3628      H3633   1.083       .  S
C3629      C3630   1.404       .  A
C3630      H3634   1.084       .  S
C3635      C3636   1.404       .  A
C3635      C3640   1.408       .  A
C3635      H3641   1.083       .  S
C3636      C3637   1.406       .  A
C3637      C3638   1.395       .  A
C3637      H3642   1.083       .  S
C3638      C3639   1.405       .  A
C3638      H3643   1.083       .  S
C3639      C3640   1.412       .  A
C3640      H3644   1.082       .  S
C3645      C3646   1.407       .  A
C3645      C3650   1.401       .  A
C3645      H3651   1.081       .  S
C3646      C3647   1.404       .  A
C3647      C3648   1.388       .  A
C3647      H3652   1.085       .  S
C3648      C3649   1.400       .  A
C3648      H3653   1.081       .  S
C3649      C3650   1.402       .  A
C3650      H3654   1.085       .  S
C3655      C3656   1.401       .  A
C3655      C3660   1.388       .  A
C3655      H3661   1.083       .  S
C3656      C3657   1.402       .  A
C3657      C3658   1.398       .  A
C3657      H3662   1.084       .  S
C3658      C3659   1.406       .  A
C3658      H3663   1.083       .  S
C3659      C3660   1.403       .  A
C3660      H3664   1.084       .  S
C3665      C3666   1.403       .  A
C3665      C3670   1.399       .  A
C3665      H3671   1.084       .  S
C3666      C3667   1.402       .  A
C3667      C3668   1.398       .  A
C3667      H3672   1.083       .  S
C3668      C3669   1.404       .  A
C3668      H3673   1.084       .  S
C3669      C3670   1.403       .  A
C3670      H3674   1.083       .  S
C3675      C3676   1.412       .  A
C3675      C3680   1.409       .  A
C3675      H3681   1.083       .  S
C3676      C3677   1.405       .  A
C3677      C3678   1.393       .  A
C3677      H3682   1.083       .  S
C3678      C3679   1.405       .  A
C3678      H3683   1.083       .  S
C3679      C3680   1.405       .  A
C3680      H3684   1.082       .  S
C3685      C3686   1.406       .  A
C3685      C3690   1.397   1_455  A
C3685      H3691   1.083       .  S
C3686      C3687   1.404       .  A
C3687      C3688   1.408       .  A
C3687      H3692   1.083       .  S
C3688      C3689   1.412   1_455  A
C3688      H3693   1.082   1_455  S
C3689      C3690   1.405       .  A
C3690      H3694   1.084       .  S
C3695      C3696   1.409       .  A
C3695      C3700   1.410       .  A
C3695      H3701   1.082       .  S
C3696      C3697   1.405       .  A
C3697      C3698   1.388       .  A
C3697      H3702   1.083       .  S
C3698      C3699   1.405       .  A
C3698      H3703   1.083       .  S
C3699      C3700   1.409       .  A
C3700      H3704   1.082       .  S
C3705      C3706   1.405       .  A
C3705      C3710   1.395       .  A
C3705      H3711   1.084       .  S
C3706      C3707   1.405       .  A
C3707      C3708   1.409       .  A
C3707      H3712   1.082       .  S
C3708      C3709   1.412       .  A
C3708      H3713   1.083       .  S
C3709      C3710   1.406       .  A
C3710      H3714   1.083       .  S
C3715      C3716   1.403       .  A
C3715      C3720   1.396       .  A
C3715      H3721   1.081       .  S
C3716      C3717   1.401       .  A
C3717      C3718   1.397       .  A
C3717      H3722   1.086       .  S
C3718      C3719   1.403       .  A
C3718      H3723   1.081       .  S
C3719      C3720   1.401       .  A
C3720      H3724   1.085       .  S
C3725      C3726   1.405       .  A
C3725      C3730   1.399       .  A
C3725      H3731   1.084       .  S
C3726      C3727   1.403       .  A
C3727      C3728   1.388       .  A
C3727      H3732   1.083       .  S
C3728      C3729   1.401       .  A
C3728      H3733   1.085       .  S
C3729      C3730   1.403       .  A
C3730      H3734   1.083       .  S
C3735      C3736   1.403       .  A
C3735      C3740   1.400       .  A
C3735      H3741   1.084       .  S
C3736      C3737   1.400       .  A
C3737      C3738   1.389       .  A
C3737      H3742   1.083       .  S
C3738      C3739   1.404       .  A
C3738      H3743   1.084       .  S
C3739      C3740   1.406       .  A
C3740      H3744   1.082       .  S
