geometry optimzed in LAMMPS
_audit_creation_date              2020-12-01 
_audit_creation_method            'lammps2cif' 
_symmetry_space_group_name_H-M    'P1' 
_symmetry_Int_Tables_number       1 
_symmetry_cell_setting            triclinic 
loop_ 
_symmetry_equiv_pos_as_xyz 
  x,y,z 
_cell_length_a                    53.35352621 
_cell_length_b                    53.55576433794679 
_cell_length_c                    59.2590240673473 
_cell_angle_alpha                 89.94417572949597 
_cell_angle_beta                  89.82316711293446 
_cell_angle_gamma                 89.94812818031936 
loop_ 
_atom_site_label 
_atom_site_type_symbol 
_atom_site_fract_x 
_atom_site_fract_y 
_atom_site_fract_z 
_atom_site_charge 
Fe1        Fe  0.38188587  0.69624234  0.12353679     1.65800
Fe2        Fe  0.42673326  0.66990666  0.15608754     1.73200
Fe3        Fe  0.44094825  0.72256957  0.12610753     1.54400
O4          O  0.43324147  0.71756962  0.09195892    -0.82100
O5          O  0.44739270  0.69346232  0.17581444    -0.80400
O6          O  0.39374061  0.70385770  0.09108691    -0.84600
O7          O  0.37732398  0.73315342  0.13072341    -0.79400
O8          O  0.47081521  0.69691711  0.12308091    -0.81200
O9          O  0.39735527  0.67766410  0.17718671    -0.83900
C10         C  0.39090972  0.75246189  0.13122175     0.96800
C11         C  0.41364863  0.71108168  0.08120349     1.04300
O12         O  0.41658269  0.69623955  0.13504879    -1.12900
O13         O  0.40709389  0.64169571  0.14019737    -0.75400
O14         O  0.38147521  0.65887564  0.11518944    -0.78800
O15         O  0.41458187  0.75177459  0.12831544    -0.79500
C16         C  0.39081477  0.63988061  0.12474296     0.95700
O17         O  0.36576699  0.68890754  0.15482126    -0.77500
O18         O  0.45744461  0.66058766  0.13708282    -0.82700
C19         C  0.45373931  0.71620816  0.17629174     0.98300
C20         C  0.47403012  0.67370527  0.12729441     1.04300
O21         O  0.45122613  0.73059912  0.15936525    -0.78300
C22         C  0.37467417  0.68372482  0.17411923     1.02600
Fe23       Fe  0.38673652  0.69679487  0.86701385     1.65800
Fe24       Fe  0.43490485  0.67166598  0.83770573     1.73200
Fe25       Fe  0.44439036  0.72481729  0.86736572     1.54400
O26         O  0.41701827  0.75300673  0.86517184    -0.82100
O27         O  0.46260352  0.66268970  0.86000723    -0.80400
O28         O  0.38137451  0.73312219  0.85797046    -0.84600
O29         O  0.39560610  0.70630297  0.90000395    -0.79400
O30         O  0.45465559  0.73356719  0.83450709    -0.81200
O31         O  0.41325968  0.64319919  0.85167054    -0.83900
C32         C  0.41524964  0.71268666  0.91073952     0.96800
C33         C  0.39396741  0.75301548  0.85965649     1.04300
O34         O  0.42198187  0.69772087  0.85759403    -1.12900
O35         O  0.40816686  0.67971236  0.81406315    -0.75400
O36         O  0.37410081  0.68731740  0.83496680    -0.78800
O37         O  0.43566747  0.71843942  0.90086889    -0.79500
C38         C  0.38482537  0.68368592  0.81602936     0.95700
O39         O  0.38738069  0.65992949  0.87684375    -0.77500
O40         O  0.45884426  0.69534885  0.82029100    -0.82700
C41         C  0.47898127  0.67697193  0.86853448     0.98300
C42         C  0.46233968  0.71874921  0.81930045     1.04300
O43         O  0.47536087  0.70047501  0.87070190    -0.78300
C44         C  0.39689368  0.64110188  0.86717835     1.02600
Fe45       Fe  0.70425832  0.61240181  0.12424571     1.65800
Fe46       Fe  0.68088636  0.56827998  0.15971225     1.73200
Fe47       Fe  0.73221833  0.55460943  0.12725888     1.54400
O48         O  0.72911075  0.56536569  0.09353623    -0.82100
O49         O  0.70753774  0.55394907  0.18111747    -0.80400
O50         O  0.70425895  0.59885888  0.09171402    -0.84600
O51         O  0.74261656  0.61628549  0.12299813    -0.79400
O52         O  0.70654372  0.52600729  0.12113152    -0.81200
O53         O  0.68407348  0.60114621  0.17719391    -0.83900
C54         C  0.76196923  0.60348657  0.12749219     0.96800
C55         C  0.71695011  0.58165174  0.08229742     1.04300
O56         O  0.70580643  0.57836462  0.13706494    -1.12900
O57         O  0.65053330  0.58147232  0.14153481    -0.75400
O58         O  0.66548762  0.61428523  0.12308029    -0.78800
O59         O  0.76096726  0.58040203  0.13246108    -0.79500
C60         C  0.64726760  0.60092758  0.12967562     0.95700
O61         O  0.70419793  0.62914032  0.15582655    -0.77500
O62         O  0.67513862  0.53410927  0.14495793    -0.82700
C63         C  0.72802269  0.54234480  0.17849657     0.98300
C64         C  0.68569784  0.52032742  0.13033585     1.04300
O65         O  0.73886666  0.54032663  0.15946032    -0.78300
C66         C  0.69419990  0.62231686  0.17432473     1.02600
Fe67       Fe  0.70895514  0.61644142  0.86973194     1.65800
Fe68       Fe  0.68365052  0.57114063  0.83682158     1.73200
Fe69       Fe  0.73715666  0.55826450  0.86670273     1.54400
O70         O  0.76565188  0.58469666  0.86257689    -0.82100
O71         O  0.67689650  0.53892975  0.85448171    -0.80400
O72         O  0.74639430  0.62162437  0.86349734    -0.84600
O73         O  0.71515332  0.60439779  0.90238785    -0.79400
O74         O  0.74450549  0.54665251  0.83372481    -0.81200
O75         O  0.65447986  0.58774721  0.85440107    -0.83900
C76         C  0.72419210  0.58508014  0.91183753     0.96800
C77         C  0.76586881  0.60837409  0.86100118     1.04300
O78         O  0.70991894  0.58191111  0.85783944    -1.12900
O79         O  0.68800943  0.60192241  0.81669512    -0.75400
O80         O  0.70246121  0.63261902  0.83847422    -0.78800
O81         O  0.73309128  0.56680051  0.90068379    -0.79500
C82         C  0.69492336  0.62427251  0.81965186     0.95700
O83         O  0.67099626  0.61648892  0.87685369    -0.77500
O84         O  0.70863840  0.55367047  0.81573254    -0.82700
C85         C  0.68979405  0.52394113  0.86629716     0.98300
C86         C  0.73106604  0.54594613  0.81607082     1.04300
O87         O  0.71242254  0.52845901  0.87176163    -0.78300
C88         C  0.65219393  0.60520515  0.86872846     1.02600
Fe89       Fe  0.61883701  0.29442384  0.12416974     1.65800
Fe90       Fe  0.57079370  0.31718685  0.15560601     1.73200
Fe91       Fe  0.56112385  0.26586928  0.12275733     1.54400
O92         O  0.57032801  0.27355207  0.08960351    -0.82100
O93         O  0.54888404  0.29185352  0.17285519    -0.80400
O94         O  0.60958095  0.28784938  0.09069953    -0.84600
O95         O  0.62456789  0.25732702  0.13040778    -0.79400
O96         O  0.53053804  0.29026474  0.11963856    -0.81200
O97         O  0.59875947  0.30904863  0.17814672    -0.83900
C98         C  0.61177803  0.23750868  0.12899460     0.96800
C99         C  0.59022508  0.28095305  0.07984098     1.04300
O100        O  0.58357519  0.29251134  0.13403693    -1.12900
O101        O  0.59110003  0.34685965  0.14239397    -0.75400
O102        O  0.61812847  0.33211863  0.11717154    -0.78800
O103        O  0.58842987  0.23764824  0.12459354    -0.79500
C104        C  0.60807778  0.35015892  0.12763112     0.95700
O105        O  0.63219158  0.30124425  0.15652897    -0.77500
O106        O  0.54144655  0.32674901  0.13485964    -0.82700
C107        C  0.54377419  0.26880500  0.17171354     0.98300
C108        C  0.52612233  0.31320007  0.12399257     1.04300
O109        O  0.54934779  0.25543217  0.15476947    -0.78300
C110        C  0.62201098  0.30488818  0.17569045     1.02600
Fe111      Fe  0.62465716  0.29748772  0.86732843     1.65800
Fe112      Fe  0.57951651  0.32361426  0.83480318     1.73200
Fe113      Fe  0.56597254  0.27076092  0.86483548     1.54400
O114        O  0.59267089  0.24199685  0.86254031    -0.82100
O115        O  0.54826922  0.33198815  0.85345764    -0.80400
O116        O  0.62972161  0.26081413  0.85888076    -0.84600
O117        O  0.61329578  0.28850388  0.89961133    -0.79400
O118        O  0.55567874  0.26281280  0.83179861    -0.81200
O119        O  0.59834132  0.35183188  0.85164620    -0.83900
C120        C  0.59326464  0.28174904  0.90951100     0.96800
C121        C  0.61621970  0.24138637  0.85892225     1.04300
O122        O  0.58998671  0.29730432  0.85577285    -1.12900
O123        O  0.60936578  0.31739896  0.81391892    -0.75400
O124        O  0.64079528  0.30659249  0.83661853    -0.78800
O125        O  0.57350592  0.27589152  0.89880582    -0.79500
C126        C  0.63218908  0.31241060  0.81741383     0.95700
O127        O  0.62406070  0.33457696  0.87664856    -0.77500
O128        O  0.55988036  0.29949892  0.81443478    -0.82700
C129        C  0.53217617  0.31876557  0.86375743     0.98300
C130        C  0.55332163  0.27676722  0.81458729     1.04300
O131        O  0.53582285  0.29572148  0.86815268    -0.78300
C132        C  0.61443664  0.35360159  0.86732280     1.02600
Fe133      Fe  0.29763613  0.37588026  0.12212932     1.65800
Fe134      Fe  0.32275079  0.42295550  0.15258125     1.73200
Fe135      Fe  0.26943003  0.43356488  0.12274434     1.54400
O136        O  0.27598677  0.42559928  0.08912817    -0.82100
O137        O  0.29851403  0.44515642  0.17100490    -0.80400
O138        O  0.28878332  0.38585713  0.08922194    -0.84600
O139        O  0.26092281  0.37037967  0.13043559    -0.79400
O140        O  0.29369203  0.46441451  0.11977147    -0.81200
O141        O  0.31553113  0.39508428  0.17528700    -0.83900
C142        C  0.24101394  0.38314147  0.12930628     0.96800
C143        C  0.28219263  0.40566303  0.07886931     1.04300
O144        O  0.29660797  0.41078353  0.13233627    -1.12900
O145        O  0.35166048  0.40262381  0.13775111    -0.75400
O146        O  0.33490093  0.37659378  0.11292351    -0.78800
O147        O  0.24107054  0.40635339  0.12461714    -0.79500
C148        C  0.35380482  0.38621154  0.12241231     0.95700
O149        O  0.30649274  0.36195551  0.15398440    -0.77500
O150        O  0.33131877  0.45193677  0.13150360    -0.82700
C151        C  0.27518246  0.44962000  0.17150992     0.98300
C152        C  0.31710518  0.46819715  0.12266426     1.04300
O153        O  0.26050127  0.44358815  0.15561633    -0.78300
C154        C  0.31099372  0.37200091  0.17300116     1.02600
Fe155      Fe  0.30424832  0.37968865  0.86509515     1.65800
Fe156      Fe  0.32707185  0.42708014  0.83385746     1.73200
Fe157      Fe  0.27461571  0.43647289  0.86513204     1.54400
O158        O  0.24708038  0.40842446  0.86322878    -0.82100
O159        O  0.33639246  0.45520194  0.85562661    -0.80400
O160        O  0.26784163  0.37304297  0.85649674    -0.84600
O161        O  0.29441438  0.38867563  0.89800583    -0.79400
O162        O  0.26488416  0.44692823  0.83257614    -0.81200
O163        O  0.35635628  0.40610261  0.84694816    -0.83900
C164        C  0.28754671  0.40818957  0.90861020     0.96800
C165        C  0.24759999  0.38527497  0.85818433     1.04300
O166        O  0.30192786  0.41442710  0.85487792    -1.12900
O167        O  0.31855496  0.39964028  0.81089936    -0.75400
O168        O  0.31441676  0.36639481  0.83335986    -0.78800
O169        O  0.28148776  0.42828069  0.89858868    -0.79500
C170        C  0.31687188  0.37623205  0.81391626     0.95700
O171        O  0.34128659  0.38232710  0.87448328    -0.77500
O172        O  0.30269358  0.45041587  0.81705291    -0.82700
C173        C  0.32239902  0.47097890  0.86555161     0.98300
C174        C  0.27931958  0.45445503  0.81696929     1.04300
O175        O  0.29886458  0.46741515  0.86831198    -0.78300
C176        C  0.35951832  0.39108756  0.86328029     1.02600
Fe177      Fe  0.69945305  0.37307440  0.36873619     1.65800
Fe178      Fe  0.67727480  0.41967095  0.33569992     1.73200
Fe179      Fe  0.72899645  0.43013674  0.36784195     1.54400
O180        O  0.72188110  0.42236585  0.40121811    -0.82100
O181        O  0.70284024  0.44043866  0.31738379    -0.80400
O182        O  0.70831281  0.38303264  0.40159670    -0.84600
O183        O  0.73632136  0.36634110  0.36109716    -0.79400
O184        O  0.70483563  0.46089307  0.37060151    -0.81200
O185        O  0.68490809  0.39070272  0.31423092    -0.83900
C186        C  0.75639693  0.37890432  0.36234641     0.96800
C187        C  0.71556688  0.40267727  0.41169414     1.04300
O188        O  0.70192498  0.40767262  0.35756044    -1.12900
O189        O  0.64742681  0.40033571  0.35003547    -0.75400
O190        O  0.66198676  0.37578514  0.37722928    -0.78800
O191        O  0.75664570  0.40226929  0.36641802    -0.79500
C192        C  0.64391962  0.38498355  0.36610906     0.95700
O193        O  0.69025798  0.35824702  0.33733704    -0.77500
O194        O  0.66823470  0.44991215  0.35543196    -0.82700
C195        C  0.72594119  0.44576841  0.31842035     0.98300
C196        C  0.68185371  0.46529797  0.36614438     1.04300
O197        O  0.73930096  0.44083350  0.33551216    -0.78300
C198        C  0.68724778  0.36748721  0.31776438     1.02600
Fe199      Fe  0.71160615  0.37865153  0.62527519     1.65800
Fe200      Fe  0.68595592  0.42678646  0.65420269     1.73200
Fe201      Fe  0.73915630  0.43653307  0.62412902     1.54400
O202        O  0.76767995  0.40952005  0.62658328    -0.82100
O203        O  0.67685338  0.45454283  0.63196804    -0.80400
O204        O  0.74823723  0.37371485  0.63423785    -0.84600
O205        O  0.72106942  0.38720140  0.59232508    -0.79400
O206        O  0.74786773  0.44773149  0.65678249    -0.81200
O207        O  0.65766305  0.40523957  0.64027278    -0.83900
C208        C  0.72705537  0.40670907  0.58129523     0.96800
C209        C  0.76799683  0.38657168  0.63224544     1.04300
O210        O  0.71222795  0.41395971  0.63436697    -1.12900
O211        O  0.69374640  0.39998538  0.67782703    -0.75400
O212        O  0.70202415  0.36608080  0.65717067    -0.78800
O213        O  0.73266166  0.42724982  0.59080594    -0.79500
C214        C  0.69769804  0.37671885  0.67593185     0.95700
O215        O  0.67445922  0.37879268  0.61567682    -0.77500
O216        O  0.70955290  0.45065120  0.67152673    -0.82700
C217        C  0.69102333  0.47073477  0.62292185     0.98300
C218        C  0.73287753  0.45514455  0.67206265     1.04300
O219        O  0.71455370  0.46710969  0.62038088    -0.78300
C220        C  0.65556217  0.38855312  0.62519591     1.02600
Fe221      Fe  0.62065077  0.69334942  0.36706219     1.65800
Fe222      Fe  0.57196241  0.66863441  0.33867054     1.73200
Fe223      Fe  0.56331342  0.72178110  0.36836738     1.54400
O224        O  0.57194932  0.71464680  0.40173583    -0.82100
O225        O  0.54759623  0.69247065  0.32217047    -0.80400
O226        O  0.61233088  0.70362963  0.40009692    -0.84600
O227        O  0.62619456  0.72961420  0.35744652    -0.79400
O228        O  0.53210105  0.69801517  0.37150642    -0.81200
O229        O  0.59841211  0.67643505  0.31439905    -0.83900
C230        C  0.61387833  0.74955924  0.36043439     0.96800
C231        C  0.59268623  0.70944934  0.41123159     1.04300
O232        O  0.58537283  0.69457071  0.35822070    -1.12900
O233        O  0.59398812  0.64019028  0.35185990    -0.75400
O234        O  0.61947867  0.65660175  0.37734551    -0.78800
O235        O  0.59103262  0.74953893  0.36668971    -0.79500
C236        C  0.61027909  0.63788223  0.36730239     0.95700
O237        O  0.63284323  0.68282350  0.33497480    -0.77500
O238        O  0.54459188  0.65982495  0.36169606    -0.82700
C239        C  0.54428362  0.71589152  0.32097669     0.98300
C240        C  0.52824557  0.67454144  0.36985508     1.04300
O241        O  0.55308483  0.73089568  0.33551984    -0.78300
C242        C  0.62196154  0.67922983  0.31615219     1.02600
Fe243      Fe  0.62810464  0.69958104  0.62529661     1.65800
Fe244      Fe  0.58097907  0.67343468  0.65606628     1.73200
Fe245      Fe  0.56904968  0.72628331  0.62523287     1.54400
O246        O  0.59506038  0.75548736  0.62840810    -0.82100
O247        O  0.55004863  0.66561459  0.63696396    -0.80400
O248        O  0.63240634  0.73713404  0.63066711    -0.84600
O249        O  0.61781790  0.70496053  0.59193532    -0.79400
O250        O  0.55639630  0.73440099  0.65777212    -0.81200
O251        O  0.59942601  0.64457162  0.63967138    -0.83900
C252        C  0.59833141  0.71247981  0.58158933     0.96800
C253        C  0.61870797  0.75642579  0.63097964     1.04300
O254        O  0.59271076  0.69980193  0.63548195    -1.12900
O255        O  0.61029643  0.67883762  0.67770140    -0.75400
O256        O  0.64222386  0.69410203  0.65759660    -0.78800
O257        O  0.57894115  0.72053994  0.59182740    -0.79500
C258        C  0.63266082  0.68653434  0.67604153     0.95700
O259        O  0.62947464  0.66171037  0.61885733    -0.77500
O260        O  0.56129024  0.69815491  0.67577937    -0.82700
C261        C  0.53488184  0.67867874  0.62551163     0.98300
C262        C  0.55398807  0.72066495  0.67516644     1.04300
O263        O  0.53927158  0.70140344  0.62052484    -0.78300
C264        C  0.61791430  0.64271813  0.62625498     1.02600
Fe265      Fe  0.29782768  0.61405267  0.36661328     1.65800
Fe266      Fe  0.32624886  0.56928496  0.33492420     1.73200
Fe267      Fe  0.27400463  0.55417205  0.36588968     1.54400
O268        O  0.27868791  0.56328580  0.39967771    -0.82100
O269        O  0.30255650  0.54892151  0.31475812    -0.80400
O270        O  0.29068529  0.60313192  0.39934950    -0.84600
O271        O  0.26045045  0.61679174  0.35927990    -0.79400
O272        O  0.30049180  0.52588609  0.37012140    -0.81200
O273        O  0.31943057  0.59882323  0.31373678    -0.83900
C274        C  0.24176483  0.60223597  0.35931679     0.96800
C275        C  0.28453964  0.58335445  0.40983260     1.04300
O276        O  0.29935544  0.57912141  0.35587101    -1.12900
O277        O  0.35384812  0.58860436  0.35203340    -0.75400
O278        O  0.33536932  0.61593916  0.37489838    -0.78800
O279        O  0.24368900  0.57886700  0.36283707    -0.79500
C280        C  0.35486680  0.60566571  0.36685921     0.95700
O281        O  0.30483305  0.62969327  0.33526844    -0.77500
O282        O  0.33581438  0.53832276  0.35345783    -0.82700
C283        C  0.28042345  0.54039962  0.31565231     0.98300
C284        C  0.32342154  0.52254926  0.36488671     1.04300
O285        O  0.26675382  0.54187094  0.33321963    -0.78300
C286        C  0.31213782  0.62111540  0.31644113     1.02600
Fe287      Fe  0.30667676  0.61807097  0.62227230     1.65800
Fe288      Fe  0.33105246  0.57247015  0.65475268     1.73200
Fe289      Fe  0.27858313  0.56042607  0.62447811     1.54400
O290        O  0.25032528  0.58798770  0.62533383    -0.82100
O291        O  0.34047215  0.54288786  0.63466741    -0.80400
O292        O  0.27011937  0.62404760  0.63128918    -0.84600
O293        O  0.29688993  0.60721602  0.58987873    -0.79400
O294        O  0.26915144  0.55123327  0.65743885    -0.81200
O295        O  0.35969567  0.59263310  0.63971473    -0.83900
C296        C  0.29102314  0.58694669  0.58000765     0.96800
C297        C  0.25022645  0.61123984  0.63001599     1.04300
O298        O  0.30540110  0.58363287  0.63368972    -1.12900
O299        O  0.32292878  0.60100905  0.67640349    -0.75400
O300        O  0.31682860  0.63334003  0.65329848    -0.78800
O301        O  0.28558056  0.56713601  0.59075966    -0.79500
C302        C  0.32016565  0.62415720  0.67285936     0.95700
O303        O  0.34372572  0.61602026  0.61237412    -0.77500
O304        O  0.30681138  0.55089166  0.67350390    -0.82700
C305        C  0.32664913  0.52636552  0.62578274     0.98300
C306        C  0.28351697  0.54634526  0.67389508     1.04300
O307        O  0.30319310  0.52972135  0.62264504    -0.78300
C308        C  0.36233217  0.60734911  0.62306864     1.02600
Fe309      Fe  0.37872916  0.29359393  0.36604033     1.65800
Fe310      Fe  0.42421418  0.31568562  0.33076067     1.73200
Fe311      Fe  0.43649892  0.26441149  0.36359361     1.54400
O312        O  0.42710592  0.26903321  0.39716400    -0.82100
O313        O  0.43948717  0.28893666  0.31011636    -0.80400
O314        O  0.39083801  0.28950312  0.39891858    -0.84600
O315        O  0.37275783  0.25590764  0.36229336    -0.79400
O316        O  0.46614029  0.28922679  0.36873689    -0.81200
O317        O  0.39216735  0.31214041  0.31213702    -0.83900
C318        C  0.38580093  0.23637177  0.35930624     0.96800
C319        C  0.40958946  0.27933571  0.40833346     1.04300
O320        O  0.41317426  0.29123180  0.35351582    -1.12900
O321        O  0.41004742  0.34615783  0.34800628    -0.75400
O322        O  0.38000905  0.33181739  0.37065228    -0.78800
O323        O  0.40965251  0.23641252  0.35947914    -0.79500
C324        C  0.39258329  0.34967089  0.36223495     0.95700
O325        O  0.36192370  0.29814282  0.33487204    -0.77500
O326        O  0.45785336  0.32178410  0.34654352    -0.82700
C327        C  0.44909560  0.26751162  0.31255881     0.98300
C328        C  0.47184069  0.31046870  0.36049697     1.04300
O329        O  0.44965045  0.25617881  0.33136889    -0.78300
C330        C  0.36980454  0.30537735  0.31576550     1.02600
Fe331      Fe  0.38936328  0.29883647  0.62205489     1.65800
Fe332      Fe  0.43686806  0.32257320  0.65302152     1.73200
Fe333      Fe  0.44722393  0.27048142  0.62171267     1.54400
O334        O  0.41982692  0.24247156  0.62343654    -0.82100
O335        O  0.46594090  0.33168789  0.63200965    -0.80400
O336        O  0.38372110  0.26208672  0.63020756    -0.84600
O337        O  0.39882704  0.29019371  0.58898012    -0.79400
O338        O  0.45785000  0.26070833  0.65417621    -0.81200
O339        O  0.41642450  0.35162997  0.63901131    -0.83900
C340        C  0.41855597  0.28368201  0.57837260     0.96800
C341        C  0.39664641  0.24231815  0.62858463     1.04300
O342        O  0.42448313  0.29730687  0.63210160    -1.12900
O343        O  0.40880729  0.31482880  0.67567741    -0.75400
O344        O  0.37550780  0.30784342  0.65386441    -0.78800
O345        O  0.43873373  0.27760316  0.58836212    -0.79500
C346        C  0.38545571  0.31158847  0.67303004     0.95700
O347        O  0.39057044  0.33611296  0.61329583    -0.77500
O348        O  0.45936999  0.29801980  0.67064692    -0.82700
C349        C  0.48213753  0.31779302  0.62256829     0.98300
C350        C  0.46414506  0.27484462  0.67035303     1.04300
O351        O  0.47822437  0.29461621  0.61892683    -0.78300
C352        C  0.40022304  0.35446237  0.62357732     1.02600
Fe353      Fe  0.89018180  0.19699181  0.62316087     1.65800
Fe354      Fe  0.93854640  0.17264663  0.65263105     1.73200
Fe355      Fe  0.94744921  0.22601044  0.62299744     1.54400
O356        O  0.93915975  0.21926820  0.58965545    -0.82100
O357        O  0.96103427  0.19688759  0.67064190    -0.80400
O358        O  0.89904517  0.20738901  0.59044916    -0.84600
O359        O  0.88392348  0.23327367  0.63281088    -0.79400
O360        O  0.97902549  0.20265698  0.61972256    -0.81200
O361        O  0.91089588  0.17914913  0.67596310    -0.83900
C362        C  0.89637994  0.25327253  0.63068544     0.96800
C363        C  0.91882489  0.21357931  0.57978732     1.04300
O364        O  0.92535411  0.19855897  0.63280576    -1.12900
O365        O  0.91816889  0.14401316  0.63800281    -0.75400
O366        O  0.89207604  0.16020982  0.61280367    -0.78800
O367        O  0.91940496  0.25344018  0.62497211    -0.79500
C368        C  0.90207075  0.14156261  0.62242654     0.95700
O369        O  0.87713213  0.18610885  0.65468788    -0.77500
O370        O  0.96715291  0.16467698  0.63072529    -0.82700
C371        C  0.96461335  0.22027973  0.67129351     0.98300
C372        C  0.98313165  0.17929001  0.62193865     1.04300
O373        O  0.95753049  0.23493372  0.65572986    -0.78300
C374        C  0.88743823  0.18187708  0.67362126     1.02600
Fe375      Fe  0.88141057  0.19125730  0.36829180     1.65800
Fe376      Fe  0.92830000  0.16596244  0.33687869     1.73200
Fe377      Fe  0.93921700  0.21988587  0.36540473     1.54400
O378        O  0.91176800  0.24771754  0.36304674    -0.82100
O379        O  0.95872675  0.15857168  0.35670907    -0.80400
O380        O  0.87518391  0.22796712  0.36018764    -0.84600
O381        O  0.89228846  0.20023079  0.40085899    -0.79400
O382        O  0.94904240  0.22780536  0.33225031    -0.81200
O383        O  0.90978775  0.13753112  0.35338205    -0.83900
C384        C  0.91225780  0.20806113  0.41017316     0.96800
C385        C  0.88816131  0.24774724  0.36007857     1.04300
O386        O  0.91626030  0.19239886  0.35697611    -1.12900
O387        O  0.89909258  0.17141717  0.31534896    -0.75400
O388        O  0.86650788  0.18218306  0.33698046    -0.78800
O389        O  0.93146862  0.21478807  0.39901951    -0.79500
C390        C  0.87609957  0.17650421  0.31800530     0.95700
O391        O  0.88268306  0.15408832  0.37757221    -0.77500
O392        O  0.94813910  0.19004672  0.31665834    -0.82700
C393        C  0.97420152  0.17267883  0.36665903     0.98300
C394        C  0.95266580  0.21323174  0.31569607     1.04300
O395        O  0.97013396  0.19596747  0.36939593    -0.78300
C396        C  0.89336037  0.13533670  0.36873624     1.02600
Fe397      Fe  0.12862299  0.79779233  0.62210032     1.65800
Fe398      Fe  0.08238813  0.82613853  0.65233273     1.73200
Fe399      Fe  0.06936053  0.77171758  0.62473303     1.54400
O400        O  0.07874268  0.77503987  0.59103480    -0.82100
O401        O  0.06214983  0.80330422  0.67316982    -0.80400
O402        O  0.11737622  0.79116248  0.58928105    -0.84600
O403        O  0.13263486  0.76048823  0.62864585    -0.79400
O404        O  0.03976797  0.79680558  0.61926134    -0.81200
O405        O  0.11175130  0.82057864  0.67400881    -0.83900
C406        C  0.11878984  0.74146651  0.63057178     0.96800
C407        C  0.09774140  0.78259520  0.57991859     1.04300
O408        O  0.09346786  0.79852220  0.63294760    -1.12900
O409        O  0.10119165  0.85366458  0.63484236    -0.75400
O410        O  0.13074244  0.83534555  0.61430729    -0.78800
O411        O  0.09506151  0.74252058  0.62899723    -0.79500
C412        C  0.11948392  0.85470593  0.62123230     0.95700
O413        O  0.14320445  0.80409957  0.65395822    -0.77500
O414        O  0.05171263  0.83369968  0.63277864    -0.82700
C415        C  0.05521743  0.78074837  0.67424890     0.98300
C416        C  0.03603064  0.82004264  0.62255177     1.04300
O417        O  0.05756557  0.76569441  0.65782602    -0.78300
C418        C  0.13386330  0.81207466  0.67233085     1.02600
Fe419      Fe  0.12333931  0.78919462  0.36578047     1.65800
Fe420      Fe  0.07590749  0.81584227  0.33601973     1.73200
Fe421      Fe  0.06400006  0.76363330  0.36716652     1.54400
O422        O  0.08948685  0.73423867  0.36387326    -0.82100
O423        O  0.04675772  0.82518905  0.35676246    -0.80400
O424        O  0.12692492  0.75180582  0.35903350    -0.84600
O425        O  0.11397539  0.78284961  0.39928135    -0.79400
O426        O  0.05110916  0.75521189  0.33508712    -0.81200
O427        O  0.09631904  0.84416508  0.35112138    -0.83900
C428        C  0.09433945  0.77633140  0.41000521     0.96800
C429        C  0.11281377  0.73282560  0.35969164     1.04300
O430        O  0.08776987  0.78953837  0.35640045    -1.12900
O431        O  0.10383887  0.80836221  0.31329795    -0.75400
O432        O  0.13679587  0.79563327  0.33338970    -0.78800
O433        O  0.07432830  0.76953216  0.40018694    -0.79500
C434        C  0.12655608  0.80165326  0.31483289     0.95700
O435        O  0.12489329  0.82679807  0.37333033    -0.77500
O436        O  0.05334171  0.79207652  0.31773232    -0.82700
C437        C  0.03110103  0.81218671  0.36777779     0.98300
C438        C  0.04635175  0.76948639  0.31854914     1.04300
O439        O  0.03460274  0.78908329  0.37189126    -0.78300
C440        C  0.11401913  0.84584604  0.36528015     1.02600
Fe441      Fe  0.80678839  0.87814254  0.62255393     1.65800
Fe442      Fe  0.83201232  0.92367582  0.65531938     1.73200
Fe443      Fe  0.77963379  0.93679205  0.62425309     1.54400
O444        O  0.78543920  0.92838764  0.59048396    -0.82100
O445        O  0.80687299  0.94218830  0.67552853    -0.80400
O446        O  0.79919229  0.88904393  0.58987066    -0.84600
O447        O  0.76949764  0.87319009  0.62968346    -0.79400
O448        O  0.80471642  0.96676721  0.62045831    -0.81200
O449        O  0.82655137  0.89350068  0.67588852    -0.83900
C450        C  0.74999399  0.88670642  0.62986555     0.96800
C451        C  0.79207264  0.90879726  0.57989482     1.04300
O452        O  0.80613091  0.91290863  0.63395666    -1.12900
O453        O  0.86097972  0.90620547  0.63827245    -0.75400
O454        O  0.84454901  0.87862055  0.61450794    -0.78800
O455        O  0.75065859  0.91025936  0.62677112    -0.79500
C456        C  0.86327936  0.88959481  0.62313878     0.95700
O457        O  0.81443895  0.86226950  0.65365905    -0.77500
O458        O  0.84008131  0.95533438  0.63742603    -0.82700
C459        C  0.78432815  0.94957819  0.67481936     0.98300
C460        C  0.82745215  0.97081241  0.62594792     1.04300
O461        O  0.77102270  0.94810110  0.65709812    -0.78300
C462        C  0.82085419  0.87087930  0.67268854     1.02600
Fe463      Fe  0.80289871  0.87157912  0.36740825     1.65800
Fe464      Fe  0.82832173  0.91757891  0.33506791     1.73200
Fe465      Fe  0.77509648  0.92977139  0.36509805     1.54400
O466        O  0.74654985  0.90308249  0.36291131    -0.82100
O467        O  0.83636911  0.94834692  0.35415165    -0.80400
O468        O  0.76578572  0.86624889  0.36032175    -0.84600
O469        O  0.79513795  0.88273497  0.40025626    -0.79400
O470        O  0.76682001  0.94041514  0.33213201    -0.81200
O471        O  0.85693023  0.89925197  0.35159158    -0.83900
C472        C  0.78801307  0.90282942  0.40978024     0.96800
C473        C  0.74615851  0.87954188  0.36008291     1.04300
O474        O  0.80206384  0.90628981  0.35592814    -1.12900
O475        O  0.82236268  0.88812609  0.31390960    -0.75400
O476        O  0.81077189  0.85624626  0.33587135    -0.78800
O477        O  0.78087342  0.92191884  0.39876925    -0.79500
C478        C  0.81661032  0.86543100  0.31677712     0.95700
O479        O  0.84045530  0.87205969  0.37570538    -0.77500
O480        O  0.80390291  0.93725228  0.31503071    -0.82700
C481        C  0.82277778  0.96382717  0.36476411     0.98300
C482        C  0.78096509  0.94337254  0.31504520     1.04300
O483        O  0.79964796  0.95985603  0.36875001    -0.78300
C484        C  0.85920263  0.88283116  0.36687773     1.02600
Fe485      Fe  0.21186078  0.11721383  0.62456915     1.65800
Fe486      Fe  0.18570901  0.06856872  0.65219250     1.73200
Fe487      Fe  0.23983014  0.05964833  0.62390309     1.54400
O488        O  0.23374066  0.06867867  0.59055772    -0.82100
O489        O  0.20855619  0.04317934  0.66870490    -0.80400
O490        O  0.22180210  0.10873439  0.59143650    -0.84600
O491        O  0.24837344  0.12235612  0.63398277    -0.79400
O492        O  0.21555261  0.02897950  0.62004902    -0.81200
O493        O  0.19346715  0.09424203  0.67686416    -0.83900
C494        C  0.26825013  0.10966399  0.63187242     0.96800
C495        C  0.22790316  0.08898660  0.58069870     1.04300
O496        O  0.21251155  0.08196290  0.63340205    -1.12900
O497        O  0.15776546  0.09118167  0.63907570    -0.75400
O498        O  0.17494032  0.11717458  0.61436666    -0.78800
O499        O  0.26809738  0.08673391  0.62629259    -0.79500
C500        C  0.15590693  0.10787466  0.62398410     0.95700
O501        O  0.20152963  0.12882878  0.65684590    -0.77500
O502        O  0.17707951  0.04235343  0.62838407    -0.82700
C503        C  0.23196170  0.03962269  0.67060789     0.98300
C504        C  0.19182169  0.02580880  0.62068266     1.04300
O505        O  0.24770168  0.04894025  0.65687086    -0.78300
C506        C  0.19703719  0.11765220  0.67543755     1.02600
Fe507      Fe  0.19998384  0.11079905  0.36730559     1.65800
Fe508      Fe  0.17449587  0.06144536  0.34084395     1.73200
Fe509      Fe  0.22948842  0.05426496  0.36780320     1.54400
O510        O  0.25656377  0.08257480  0.36480272    -0.82100
O511        O  0.16748856  0.03474433  0.36468343    -0.80400
O512        O  0.23550099  0.11684886  0.35523689    -0.84600
O513        O  0.21280456  0.10339897  0.39969532    -0.79400
O514        O  0.23730862  0.04419983  0.33467504    -0.81200
O515        O  0.14630180  0.08302562  0.35530424    -0.83900
C516        C  0.21883204  0.08388499  0.41075183     0.96800
C517        C  0.25588060  0.10503784  0.35774498     1.04300
O518        O  0.20133146  0.07559437  0.35880034    -1.12900
O519        O  0.18047051  0.08735538  0.31599293    -0.75400
O520        O  0.18677074  0.12217066  0.33592705    -0.78800
O521        O  0.22349508  0.06307512  0.40125481    -0.79500
C522        C  0.18265597  0.11088004  0.31742308     0.95700
O523        O  0.16402350  0.10867800  0.37991927    -0.77500
O524        O  0.19813868  0.03742708  0.32348524    -0.82700
C525        C  0.18283923  0.01851663  0.37185414     0.98300
C526        C  0.22165954  0.03478892  0.32102836     1.04300
O527        O  0.20648359  0.02245216  0.37201894    -0.78300
C528        C  0.14474862  0.09908707  0.37101265     1.02600
Fe529      Fe  0.79884744  0.11129495  0.12430449     1.65800
Fe530      Fe  0.82279218  0.06316993  0.15403540     1.73200
Fe531      Fe  0.76996497  0.05435951  0.12395837     1.54400
O532        O  0.74210061  0.08200021  0.12586733    -0.82100
O533        O  0.83230499  0.03609046  0.13123788    -0.80400
O534        O  0.76227092  0.11743793  0.13322162    -0.84600
O535        O  0.78928085  0.10282533  0.09116928    -0.79400
O536        O  0.76063643  0.04396920  0.15675615    -0.81200
O537        O  0.85158057  0.08529605  0.14153445    -0.83900
C538        C  0.78302049  0.08311763  0.08057150     0.96800
C539        C  0.74220677  0.10503601  0.13118801     1.04300
O540        O  0.79716862  0.07634295  0.13390281    -1.12900
O541        O  0.81392662  0.08952311  0.17774378    -0.75400
O542        O  0.80888998  0.12358573  0.15631811    -0.78800
O543        O  0.77704689  0.06296148  0.09061631    -0.79500
C544        C  0.81176741  0.11297371  0.17537458     0.95700
O545        O  0.83590079  0.10948935  0.11468564    -0.77500
O546        O  0.79900575  0.03866994  0.17041784    -0.82700
C547        C  0.81788317  0.01998349  0.12243295     0.98300
C548        C  0.77553026  0.03537324  0.17150354     1.04300
O549        O  0.79425910  0.02353810  0.12063734    -0.78300
C550        C  0.85434377  0.10104806  0.12571990     1.02600
Fe551      Fe  0.80391923  0.11605508  0.86708139     1.65800
Fe552      Fe  0.82808072  0.06828480  0.83668969     1.73200
Fe553      Fe  0.77467528  0.05911873  0.86611215     1.54400
O554        O  0.78125377  0.06689530  0.89956731    -0.82100
O555        O  0.80418163  0.04493143  0.81920658    -0.80400
O556        O  0.79367358  0.10671611  0.90009227    -0.84600
O557        O  0.76746038  0.12259390  0.85796963    -0.79400
O558        O  0.79850071  0.02783618  0.86904226    -0.81200
O559        O  0.82046176  0.09559763  0.81361538    -0.83900
C560        C  0.74734265  0.11016093  0.85957243     0.96800
C561        C  0.78702351  0.08671166  0.91015506     1.04300
O562        O  0.80220215  0.08122689  0.85680846    -1.12900
O563        O  0.85674689  0.08933599  0.85046377    -0.75400
O564        O  0.84086418  0.11388587  0.87701641    -0.78800
O565        O  0.74708892  0.08700815  0.86448086    -0.79500
C566        C  0.85942999  0.10489314  0.86640824     0.95700
O567        O  0.81462388  0.12931253  0.83526435    -0.77500
O568        O  0.83674058  0.04008006  0.85862898    -0.82700
C569        C  0.78072323  0.04144270  0.81817400     0.98300
C570        C  0.82204466  0.02389124  0.86700783     1.04300
O571        O  0.76573282  0.04949693  0.83315015    -0.78300
C572        C  0.81818465  0.11900407  0.81613458     1.02600
Fe573      Fe  0.88114559  0.79124484  0.12142127     1.65800
Fe574      Fe  0.92452761  0.81933202  0.15465878     1.73200
Fe575      Fe  0.94053113  0.76633431  0.12573681     1.54400
O576        O  0.91589063  0.73651675  0.13043385    -0.82100
O577        O  0.95837975  0.82621706  0.13934997    -0.80400
O578        O  0.87879009  0.75310651  0.12231026    -0.84600
O579        O  0.89492942  0.78961671  0.08904019    -0.79400
O580        O  0.95267308  0.76109065  0.15881196    -0.81200
O581        O  0.90956079  0.84717742  0.13475911    -0.83900
C582        C  0.91384846  0.77900296  0.08010209     0.96800
C583        C  0.89264170  0.73448142  0.12637326     1.04300
O584        O  0.91547411  0.79222794  0.13392502    -1.12900
O585        O  0.89196060  0.81539113  0.17271208    -0.75400
O586        O  0.86464315  0.79245349  0.15312657    -0.78800
O587        O  0.93128874  0.76890325  0.09164879    -0.79500
C588        C  0.87143594  0.80365840  0.17097508     0.95700
O589        O  0.87719778  0.82945606  0.11782075    -0.77500
O590        O  0.94053221  0.79519593  0.17741606    -0.82700
C591        C  0.97341419  0.81428392  0.12675010     0.98300
C592        C  0.95095837  0.77392951  0.17680493     1.04300
O593        O  0.96893716  0.79221738  0.11996630    -0.78300
C594        C  0.88986588  0.84859800  0.12294762     1.02600
Fe595      Fe  0.88606187  0.79578860  0.86727561     1.65800
Fe596      Fe  0.93326679  0.82299535  0.83862323     1.73200
Fe597      Fe  0.94432417  0.76904831  0.86584509     1.54400
O598        O  0.93613192  0.77377088  0.89946116    -0.82100
O599        O  0.95921225  0.80137016  0.82157613    -0.80400
O600        O  0.89573126  0.78499882  0.89995692    -0.84600
O601        O  0.88135063  0.75963586  0.85708042    -0.79400
O602        O  0.97449026  0.79430178  0.86960893    -0.81200
O603        O  0.90746838  0.81412554  0.81456958    -0.83900
C604        C  0.89453759  0.74001018  0.85795297     0.96800
C605        C  0.91590331  0.77860703  0.90998209     1.04300
O606        O  0.92109987  0.79591236  0.85753000    -1.12900
O607        O  0.90988586  0.85000559  0.85208995    -0.75400
O608        O  0.88607273  0.83239264  0.87829276    -0.78800
O609        O  0.91767705  0.74034090  0.86314070    -0.79500
C610        C  0.89417379  0.85156545  0.86810818     0.95700
O611        O  0.87323150  0.80645495  0.83537789    -0.77500
O612        O  0.95957308  0.83228720  0.86200317    -0.82700
C613        C  0.96289294  0.77817742  0.81901487     0.98300
C614        C  0.97686273  0.81809904  0.86916223     1.04300
O615        O  0.95410733  0.76209448  0.83257103    -0.78300
C616        C  0.88408398  0.81025144  0.81645621     1.02600
Fe617      Fe  0.20174254  0.87466664  0.12178348     1.65800
Fe618      Fe  0.17656800  0.91996582  0.15454511     1.73200
Fe619      Fe  0.23041581  0.93232890  0.12570661     1.54400
O620        O  0.25842144  0.90502045  0.12773602    -0.82100
O621        O  0.16863594  0.95060663  0.13525516    -0.80400
O622        O  0.23850013  0.86849878  0.13015555    -0.84600
O623        O  0.21120851  0.88639150  0.08955051    -0.79400
O624        O  0.23837386  0.94176773  0.15913895    -0.81200
O625        O  0.14814682  0.90136434  0.13834352    -0.83900
C626        C  0.21897110  0.90640519  0.08029246     0.96800
C627        C  0.25832735  0.88148212  0.13071029     1.04300
O628        O  0.20294904  0.90898349  0.13386220    -1.12900
O629        O  0.18278424  0.89034120  0.17569673    -0.75400
O630        O  0.19204900  0.85873280  0.15257402    -0.78800
O631        O  0.22550482  0.92548507  0.09161719    -0.79500
C632        C  0.18689090  0.86741009  0.17198314     0.95700
O633        O  0.16438116  0.87616848  0.11243434    -0.77500
O634        O  0.20036016  0.94001285  0.17445233    -0.82700
C635        C  0.18273152  0.96671653  0.12600409     0.98300
C636        C  0.22344749  0.94517583  0.17559955     1.04300
O637        O  0.20606925  0.96290532  0.12267479    -0.78300
C638        C  0.14568825  0.88587303  0.12238385     1.02600
Fe639      Fe  0.20579787  0.87690575  0.86773794     1.65800
Fe640      Fe  0.18097607  0.92243700  0.83489018     1.73200
Fe641      Fe  0.23425881  0.93481080  0.86473730     1.54400
O642        O  0.22918921  0.92705269  0.89874632    -0.82100
O643        O  0.20551233  0.94150366  0.81464092    -0.80400
O644        O  0.21347218  0.88848435  0.90024602    -0.84600
O645        O  0.24284601  0.87123166  0.86070812    -0.79400
O646        O  0.20958892  0.96508168  0.86863415    -0.81200
O647        O  0.18697979  0.89259519  0.81408897    -0.83900
C648        C  0.26262775  0.88421091  0.85964531     0.96800
C649        C  0.22162162  0.90810375  0.90979918     1.04300
O650        O  0.20703978  0.91140430  0.85591348    -1.12900
O651        O  0.15198303  0.90461015  0.85141152    -0.75400
O652        O  0.16819336  0.87777471  0.87592542    -0.78800
O653        O  0.26261882  0.90783029  0.86204777    -0.79500
C654        C  0.14954918  0.88833163  0.86678515     0.95700
O655        O  0.19807266  0.86102329  0.83654183    -0.77500
O656        O  0.17313678  0.95345311  0.85368098    -0.82700
C657        C  0.22842125  0.94755335  0.81438705     0.98300
C658        C  0.18645073  0.96893767  0.86448696     1.04300
O659        O  0.24246120  0.94522339  0.83154864    -0.78300
C660        C  0.19252852  0.86989251  0.81731444     1.02600
Fe661      Fe  0.11882158  0.19365119  0.12341902     1.65800
Fe662      Fe  0.07136692  0.16851384  0.15318693     1.73200
Fe663      Fe  0.06138568  0.22176110  0.12462487     1.54400
O664        O  0.08900147  0.24960979  0.12601700    -0.82100
O665        O  0.04446319  0.15925765  0.13034874    -0.80400
O666        O  0.12475171  0.22977736  0.13341068    -0.84600
O667        O  0.10936156  0.20469037  0.09079195    -0.79400
O668        O  0.05222882  0.23015011  0.15774643    -0.81200
O669        O  0.09397087  0.14062440  0.13998540    -0.83900
C670        C  0.08917368  0.21074740  0.08066106     0.96800
C671        C  0.11210653  0.24968256  0.13137052     1.04300
O672        O  0.08396472  0.19468006  0.13351534    -1.12900
O673        O  0.09779092  0.17721008  0.17676586    -0.75400
O674        O  0.13178390  0.18232283  0.15503652    -0.78800
O675        O  0.06889581  0.21553048  0.09110506    -0.79500
C676        C  0.12133353  0.17915120  0.17421100     0.95700
O677        O  0.11707417  0.15707446  0.11262899    -0.77500
O678        O  0.04619660  0.19140791  0.16993445    -0.82700
C679        C  0.02735549  0.17372314  0.12329716     0.98300
C680        C  0.04293698  0.21477262  0.17170370     1.04300
O681        O  0.03044070  0.19738730  0.12208258    -0.78300
C682        C  0.10908310  0.13834686  0.12355104     1.02600
Fe683      Fe  0.12506329  0.19586811  0.86887597     1.65800
Fe684      Fe  0.08009331  0.17149240  0.83495759     1.73200
Fe685      Fe  0.06699783  0.22420314  0.86529221     1.54400
O686        O  0.07391129  0.21892187  0.89919923    -0.82100
O687        O  0.06149022  0.19632314  0.81443819    -0.80400
O688        O  0.11270043  0.20357431  0.90128129    -0.84600
O689        O  0.13094608  0.23280708  0.86193164    -0.79400
O690        O  0.03661208  0.19978024  0.86840755    -0.81200
O691        O  0.11070927  0.17726041  0.81489848    -0.83900
C692        C  0.11782569  0.25247884  0.86086049     0.96800
C693        C  0.09268752  0.21154143  0.91051517     1.04300
O694        O  0.09068007  0.19718550  0.85647939    -1.12900
O695        O  0.09758600  0.14245351  0.85183634    -0.75400
O696        O  0.12397513  0.15838188  0.87691599    -0.78800
O697        O  0.09409192  0.25241159  0.86312351    -0.79500
C698        C  0.11365588  0.13987938  0.86742579     0.95700
O699        O  0.14185216  0.18794180  0.83797993    -0.77500
O700        O  0.04808974  0.16369465  0.85275408    -0.82700
C701        C  0.05468404  0.21897087  0.81497308     0.98300
C702        C  0.03235148  0.17704131  0.86337749     1.04300
O703        O  0.05690280  0.23256432  0.83237011    -0.78300
C704        C  0.13348048  0.18229905  0.81860925     1.02600
C705        C  0.08914056  0.21216098  0.05566033    -0.01700
C706        C  0.06703459  0.21790864  0.04398222    -0.09700
C707        C  0.06660942  0.21860173  0.02043273    -0.18500
C708        C  0.08843337  0.21348902  0.00764769     0.03900
C709        C  0.11088681  0.20803626  0.01957778     0.18000
C710        C  0.11104891  0.20745505  0.04326292    -0.20000
C711        C  0.13307556  0.20296189  0.00782244    -0.21200
C712        C  0.13345122  0.20287173  0.98440379    -0.19800
C713        C  0.11165646  0.20787993  0.97214135     0.19400
C714        C  0.08881789  0.21340281  0.98351131     0.01600
C715        C  0.06741848  0.21841822  0.97018249    -0.14500
C716        C  0.06872448  0.21787029  0.94662025    -0.12200
C717        C  0.09129095  0.21225655  0.93552198     0.01100
C718        C  0.11265862  0.20730619  0.94849238    -0.24400
H719        H  0.04980579  0.22173438  0.05306418     0.09100
H720        H  0.04888514  0.22305007  0.01277843     0.12700
H721        H  0.12831224  0.20309959  0.05203741     0.11400
H722        H  0.15026164  0.19887521  0.01681105     0.12600
H723        H  0.15092781  0.19873481  0.97581026     0.11600
H724        H  0.04940279  0.22277069  0.97741066     0.08700
H725        H  0.05188146  0.22173877  0.93706759     0.12000
H726        H  0.13027018  0.20303564  0.94017212     0.13800
C727        C  0.17419895  0.99270081  0.87142917    -0.01700
C728        C  0.14824428  0.99546169  0.86851553    -0.09700
C729        C  0.13657041  0.01851201  0.87137110    -0.18500
C730        C  0.15052783  0.03994174  0.87713244     0.03900
C731        C  0.17647298  0.03680163  0.88188448     0.18000
C732        C  0.18805995  0.01330062  0.87905201    -0.20000
C733        C  0.19085720  0.05737107  0.88851123    -0.21200
C734        C  0.18035815  0.08118754  0.88933051    -0.19800
C735        C  0.15530405  0.08510310  0.88322178     0.19400
C736        C  0.13988495  0.06446626  0.87743030     0.01600
C737        C  0.11486253  0.06943729  0.87091999    -0.14500
C738        C  0.10609658  0.09388821  0.86882093    -0.12200
C739        C  0.12162694  0.11423284  0.87362959     0.01100
C740        C  0.14594415  0.10965557  0.88169533    -0.24400
H741        H  0.13681474  0.97981477  0.86325649     0.09100
H742        H  0.11668536  0.01897769  0.86845626     0.12700
H743        H  0.20805581  0.01139008  0.88172793     0.11400
H744        H  0.21053787  0.05513936  0.89251362     0.12600
H745        H  0.19219221  0.09679113  0.89394923     0.11600
H746        H  0.10187995  0.05495500  0.86636903     0.08700
H747        H  0.08720470  0.09689661  0.86272264     0.12000
H748        H  0.15820417  0.12526753  0.88531259     0.13800
C749        C  0.17139973  0.99124579  0.12014137    -0.01700
C750        C  0.18595219  0.01092688  0.11164497    -0.09700
C751        C  0.17570425  0.03485400  0.10899644    -0.18500
C752        C  0.15051504  0.03993943  0.11510297     0.03900
C753        C  0.13571419  0.01971386  0.12310014     0.18000
C754        C  0.14605746  0.99575958  0.12515400    -0.20000
C755        C  0.11089055  0.02362068  0.12991972    -0.21200
C756        C  0.10068474  0.04745585  0.12994943    -0.19800
C757        C  0.11490076  0.06791040  0.12276631     0.19400
C758        C  0.13972907  0.06443191  0.11451429     0.01600
C759        C  0.15279264  0.08575468  0.10666939    -0.14500
C760        C  0.14222502  0.10962825  0.10837386    -0.12200
C761        C  0.11843925  0.11302059  0.11799978     0.01100
C762        C  0.10463547  0.09196289  0.12452668    -0.24400
H763        H  0.20555875  0.00803942  0.10763119     0.09100
H764        H  0.18818696  0.04914782  0.10286707     0.12700
H765        H  0.13446074  0.98078366  0.13171075     0.11400
H766        H  0.09950748  0.00822664  0.13595323     0.12600
H767        H  0.08166302  0.04996545  0.13601386     0.11600
H768        H  0.17135402  0.08463206  0.09953563     0.08700
H769        H  0.15321800  0.12560358  0.10308462     0.12000
H770        H  0.08604621  0.09436534  0.13166261     0.13800
C771        C  0.22216010  0.90872528  0.93488566    -0.01700
C772        C  0.22994868  0.93013823  0.94651749    -0.09700
C773        C  0.23015126  0.93071838  0.97012784    -0.18500
C774        C  0.22251706  0.90976241  0.98299940     0.03900
C775        C  0.21476309  0.88807319  0.97110414     0.18000
C776        C  0.21466059  0.88775679  0.94741921    -0.20000
C777        C  0.20703568  0.86676149  0.98288258    -0.21200
C778        C  0.20668243  0.86650007  0.00630755    -0.19800
C779        C  0.21404999  0.88754211  0.01857410     0.19400
C780        C  0.22215995  0.90948799  0.00716852     0.01600
C781        C  0.22942492  0.93014322  0.02050207    -0.14500
C782        C  0.22847829  0.92906640  0.04407735    -0.12200
C783        C  0.22030904  0.90742963  0.05523510     0.01100
C784        C  0.21322158  0.88671602  0.04225160    -0.24400
H785        H  0.23584819  0.94662916  0.93734777     0.09100
H786        H  0.23632283  0.94787478  0.97779237     0.12700
H787        H  0.20861488  0.87101068  0.93873179     0.11400
H788        H  0.20113607  0.85016295  0.97390101     0.12600
H789        H  0.20051527  0.84970586  0.01490198     0.11600
H790        H  0.23586523  0.94744536  0.01323058     0.08700
H791        H  0.23411905  0.94536026  0.05359648     0.12000
H792        H  0.20689334  0.86980535  0.05057376     0.13800
C793        C  0.00108011  0.82992908  0.87535811    -0.01700
C794        C  0.00396031  0.85587556  0.87307910    -0.09700
C795        C  0.02747186  0.86705151  0.87472881    -0.18500
C796        C  0.04916157  0.85259330  0.87869689     0.03900
C797        C  0.04597721  0.82659935  0.88277578     0.18000
C798        C  0.02211776  0.81553066  0.88103661    -0.20000
C799        C  0.06677555  0.81165052  0.88772646    -0.21200
C800        C  0.09079658  0.82173824  0.88781974    -0.19800
C801        C  0.09468637  0.84692071  0.88250000     0.19400
C802        C  0.07391502  0.86280577  0.87803837     0.01600
C803        C  0.07893229  0.88788026  0.87195228    -0.14500
C804        C  0.10350171  0.89638261  0.86931969    -0.12200
C805        C  0.12389201  0.88047737  0.87317444     0.01100
C806        C  0.11932635  0.85599198  0.88051886    -0.24400
H807        H  0.98806271  0.86766136  0.86909716     0.09100
H808        H  0.02806827  0.88698643  0.87240197     0.12700
H809        H  0.02016617  0.79551336  0.88312615     0.11400
H810        H  0.06450614  0.79189146  0.89112806     0.12600
H811        H  0.10653210  0.80953677  0.89130381     0.11600
H812        H  0.06433638  0.90111805  0.86817327     0.08700
H813        H  0.10655415  0.91538875  0.86366255     0.12000
H814        H  0.13498816  0.84344798  0.88326234     0.13800
C815        C  0.99744934  0.82657738  0.12066762    -0.01700
C816        C  0.00047437  0.85225716  0.12437685    -0.09700
C817        C  0.02376147  0.86368538  0.12163364    -0.18500
C818        C  0.04512333  0.84969456  0.11528998     0.03900
C819        C  0.04174991  0.82394230  0.11030543     0.18000
C820        C  0.01806667  0.81268087  0.11294215    -0.20000
C821        C  0.06221023  0.80941185  0.10341604    -0.21200
C822        C  0.08613704  0.81966948  0.10213168    -0.19800
C823        C  0.09029813  0.84463269  0.10802763     0.19400
C824        C  0.06979191  0.86010680  0.11444144     0.01600
C825        C  0.07505337  0.88499878  0.12078253    -0.14500
C826        C  0.09965692  0.89364470  0.12197412    -0.12200
C827        C  0.11989101  0.87807588  0.11649588     0.01100
C828        C  0.11500920  0.85385270  0.10868786    -0.24400
H829        H  0.98481048  0.86359986  0.12993550     0.09100
H830        H  0.02445273  0.88343108  0.12499347     0.12700
H831        H  0.01597347  0.79283304  0.10990115     0.11400
H832        H  0.05977608  0.78982740  0.09939403     0.12600
H833        H  0.10163188  0.80776158  0.09716827     0.11600
H834        H  0.06069393  0.89800137  0.12583175     0.08700
H835        H  0.10291396  0.91246112  0.12799082     0.12000
H836        H  0.13055291  0.84156535  0.10465956     0.13800
C837        C  0.91520324  0.77810316  0.05512415    -0.01700
C838        C  0.93744470  0.77158557  0.04394933    -0.09700
C839        C  0.93847152  0.77069709  0.02036952    -0.18500
C840        C  0.91707770  0.77617466  0.00715016     0.03900
C841        C  0.89451611  0.78242798  0.01864165     0.18000
C842        C  0.89383002  0.78343856  0.04226830    -0.20000
C843        C  0.87267721  0.78770441  0.00652837    -0.21200
C844        C  0.87276612  0.78725762  0.98311509    -0.19800
C845        C  0.89472318  0.78162349  0.97121969     0.19400
C846        C  0.91719469  0.77584692  0.98301099     0.01600
C847        C  0.93879352  0.77027582  0.97008541    -0.14500
C848        C  0.93816337  0.77088642  0.94653483    -0.12200
C849        C  0.91605400  0.77698188  0.93498738     0.01100
C850        C  0.89433660  0.78206112  0.94753113    -0.24400
H851        H  0.95422214  0.76731351  0.05345544     0.09100
H852        H  0.95625623  0.76566090  0.01303076     0.12700
H853        H  0.87640058  0.78822281  0.05067947     0.11400
H854        H  0.85539453  0.79234170  0.01523410     0.12600
H855        H  0.85556605  0.79158279  0.97423949     0.11600
H856        H  0.95652545  0.76561933  0.97763643     0.08700
H857        H  0.95525771  0.76678440  0.93734845     0.12000
H858        H  0.87708012  0.78670912  0.93886846     0.13800
C859        C  0.83281368  0.99913164  0.87316736    -0.01700
C860        C  0.81748335  0.97923715  0.88002584    -0.09700
C861        C  0.82732428  0.95510629  0.88259467    -0.18500
C862        C  0.85289610  0.94998986  0.87802492     0.03900
C863        C  0.86846993  0.97041298  0.87180793     0.18000
C864        C  0.85848800  0.99456669  0.86984520    -0.20000
C865        C  0.89375955  0.96652128  0.86656020    -0.21200
C866        C  0.90371651  0.94257828  0.86621473    -0.19800
C867        C  0.88877102  0.92195638  0.87155530     0.19400
C868        C  0.86339532  0.92533080  0.87834762     0.01600
C869        C  0.84959021  0.90376725  0.88446401    -0.14500
C870        C  0.86006569  0.87984841  0.88242273    -0.12200
C871        C  0.88449458  0.87666884  0.87412539     0.01100
C872        C  0.89891885  0.89788892  0.86937870    -0.24400
H873        H  0.79760716  0.98212445  0.88271096     0.09100
H874        H  0.81426683  0.94066442  0.88735990     0.12700
H875        H  0.87069160  0.00969130  0.86458518     0.11400
H876        H  0.90574785  0.98204694  0.86192221     0.12600
H877        H  0.92315421  0.94013398  0.86131338     0.11600
H878        H  0.83051997  0.90478046  0.89047371     0.08700
H879        H  0.84859081  0.86373942  0.88635270     0.12000
H880        H  0.91799441  0.89563183  0.86331810     0.13800
C881        C  0.00770314  0.16560939  0.86897201    -0.01700
C882        C  0.98842398  0.17949697  0.87909536    -0.09700
C883        C  0.96439400  0.16933107  0.88177896    -0.18500
C884        C  0.95878434  0.14491693  0.87412497     0.03900
C885        C  0.97863409  0.13073373  0.86449091     0.18000
C886        C  0.00268043  0.14097602  0.86230600    -0.20000
C887        C  0.97426030  0.10664816  0.85629413    -0.21200
C888        C  0.95031424  0.09659836  0.85660679    -0.19800
C889        C  0.93018267  0.11027059  0.86535347     0.19400
C890        C  0.93413558  0.13434251  0.87483168     0.01600
C891        C  0.91308267  0.14693560  0.88394330    -0.14500
C892        C  0.88899760  0.13671395  0.88237998    -0.12200
C893        C  0.88510646  0.11367884  0.87171606     0.01100
C894        C  0.90594960  0.10027061  0.86390205    -0.24400
H895        H  0.99171030  0.19854160  0.88443780     0.09100
H896        H  0.95042362  0.18129339  0.88930799     0.12700
H897        H  0.01734178  0.12989047  0.85448793     0.11400
H898        H  0.98937151  0.09573169  0.84901373     0.12600
H899        H  0.94743939  0.07816050  0.84954652     0.11600
H900        H  0.91455679  0.16495544  0.89192876     0.08700
H901        H  0.87323597  0.14742948  0.88866732     0.12000
H902        H  0.90322497  0.08226721  0.85590643     0.13800
C903        C  0.82900451  0.99567398  0.11551942    -0.01700
C904        C  0.81389650  0.97585037  0.10826623    -0.09700
C905        C  0.82392033  0.95186560  0.10540749    -0.18500
C906        C  0.84945851  0.94685834  0.11009051     0.03900
C907        C  0.86492197  0.96732929  0.11625328     0.18000
C908        C  0.85473814  0.99135514  0.11854676    -0.20000
C909        C  0.89025746  0.96356745  0.12126418    -0.21200
C910        C  0.90030611  0.93965937  0.12163785    -0.19800
C911        C  0.88533765  0.91894631  0.11677446     0.19400
C912        C  0.85995237  0.92222678  0.11010416     0.01600
C913        C  0.84599290  0.90058860  0.10475382    -0.14500
C914        C  0.85620767  0.87673260  0.10772166    -0.12200
C915        C  0.88064260  0.87362736  0.11598134     0.01100
C916        C  0.89537827  0.89490221  0.11956819    -0.24400
H917        H  0.79401161  0.97862295  0.10561128     0.09100
H918        H  0.81101006  0.93747142  0.10038741     0.12700
H919        H  0.86677966  0.00649610  0.12395001     0.11400
H920        H  0.90218169  0.97914777  0.12577356     0.12600
H921        H  0.91975619  0.93730095  0.12642859     0.11600
H922        H  0.82693165  0.90146543  0.09886709     0.08700
H923        H  0.84447767  0.86065040  0.10444240     0.12000
H924        H  0.91445996  0.89280187  0.12552630     0.13800
C925        C  0.00252380  0.16255632  0.11824226    -0.01700
C926        C  0.98245212  0.17725431  0.11077433    -0.09700
C927        C  0.95822144  0.16732875  0.10941494    -0.18500
C928        C  0.95320855  0.14235450  0.11592690     0.03900
C929        C  0.97377535  0.12741297  0.12295678     0.18000
C930        C  0.99804464  0.13739064  0.12358515    -0.20000
C931        C  0.96993924  0.10284802  0.13025874    -0.21200
C932        C  0.94592335  0.09298566  0.13151419    -0.19800
C933        C  0.92519079  0.10723731  0.12500364     0.19400
C934        C  0.92852729  0.13188823  0.11652026     0.01600
C935        C  0.90694334  0.14504236  0.10940473    -0.14500
C936        C  0.88306199  0.13451840  0.11148404    -0.12200
C937        C  0.87982647  0.11070382  0.12088188     0.01100
C938        C  0.90105902  0.09706594  0.12732353    -0.24400
H939        H  0.98530907  0.19673968  0.10659714     0.09100
H940        H  0.94368344  0.17992420  0.10399055     0.12700
H941        H  0.01330663  0.12573093  0.12948774     0.11400
H942        H  0.98557737  0.09138352  0.13563767     0.12600
H943        H  0.94353339  0.07412136  0.13780393     0.11600
H944        H  0.90787792  0.16354929  0.10231738     0.08700
H945        H  0.86695411  0.14547819  0.10642155     0.12000
H946        H  0.89877687  0.07853790  0.13444030     0.13800
C947        C  0.78286474  0.08349129  0.05548820    -0.01700
C948        C  0.77815410  0.06149816  0.04343655    -0.09700
C949        C  0.77839859  0.06129562  0.01990689    -0.18500
C950        C  0.78338124  0.08325777  0.00740783     0.03900
C951        C  0.78802507  0.10561062  0.01961482     0.18000
C952        C  0.78775140  0.10554423  0.04338132    -0.20000
C953        C  0.79301022  0.12787222  0.00802020    -0.21200
C954        C  0.79364224  0.12839416  0.98453003    -0.19800
C955        C  0.78929683  0.10667215  0.97200044     0.19400
C956        C  0.78401394  0.08380300  0.98327614     0.01600
C957        C  0.77966392  0.06243264  0.96989095    -0.14500
C958        C  0.78061760  0.06366428  0.94641519    -0.12200
C959        C  0.78594928  0.08614486  0.93524567     0.01100
C960        C  0.79025419  0.10764918  0.94823539    -0.24400
H961        H  0.77439095  0.04415022  0.05222329     0.09100
H962        H  0.77468092  0.04356762  0.01207123     0.12700
H963        H  0.79141676  0.12272845  0.05243673     0.11400
H964        H  0.79652483  0.14500822  0.01718967     0.12600
H965        H  0.79762623  0.14592370  0.97610026     0.11600
H966        H  0.77549799  0.04439243  0.97697944     0.08700
H967        H  0.77723183  0.04670328  0.93696783     0.12000
H968        H  0.79434914  0.12520106  0.93987770     0.13800
C969        C  0.23209985  0.95476778  0.19765534    -0.01700
C970        C  0.24821180  0.97526961  0.19982565    -0.09700
C971        C  0.25117094  0.98707298  0.22089909    -0.18500
C972        C  0.23772431  0.97873533  0.24021565     0.03900
C973        C  0.22277650  0.95692883  0.23786473     0.18000
C974        C  0.22055345  0.94510125  0.21699255    -0.20000
C975        C  0.20878431  0.94770048  0.25600197    -0.21200
C976        C  0.20801945  0.96047074  0.27625495    -0.19800
C977        C  0.22146615  0.98261339  0.27894049     0.19400
C978        C  0.23727680  0.99175058  0.26138671     0.01600
C979        C  0.25083215  0.01403731  0.26561907    -0.14500
C980        C  0.24724444  0.02750568  0.28576291    -0.12200
C981        C  0.23010980  0.01908037  0.30203425     0.01100
C982        C  0.21808200  0.99624630  0.29881713    -0.24400
H983        H  0.25736138  0.98302086  0.18506205     0.09100
H984        H  0.26312418  0.00328139  0.22139753     0.12700
H985        H  0.20836051  0.92897509  0.21546666     0.11400
H986        H  0.19751048  0.93098729  0.25422995     0.12600
H987        H  0.19619566  0.95335836  0.28970602     0.11600
H988        H  0.26365312  0.02181065  0.25340061     0.08700
H989        H  0.25681402  0.04514522  0.28806838     0.12000
H990        H  0.20506421  0.98957439  0.31157520     0.13800
C991        C  0.17960901  0.12551828  0.29671259    -0.01700
C992        C  0.19024222  0.11700395  0.27656407    -0.09700
C993        C  0.18501729  0.12891933  0.25621831    -0.18500
C994        C  0.16815307  0.14927756  0.25539705     0.03900
C995        C  0.15777060  0.15807747  0.27607291     0.18000
C996        C  0.16415880  0.14660474  0.29655332    -0.20000
C997        C  0.13992815  0.17723870  0.27605166    -0.21200
C998        C  0.13083846  0.18666486  0.25582074    -0.19800
C999        C  0.14001808  0.17770520  0.23522179     0.19400
C1000       C  0.15981107  0.15994166  0.23470388     0.01600
C1001       C  0.16950130  0.15275332  0.21341585    -0.14500
C1002       C  0.15811655  0.16073973  0.19352213    -0.12200
C1003       C  0.13690351  0.17601650  0.19435142     0.01100
C1004       C  0.12861471  0.18536093  0.21511646    -0.24400
H1005       H  0.20229382  0.10070004  0.27651811     0.09100
H1006       H  0.19342445  0.12091633  0.24134615     0.12700
H1007       H  0.15567778  0.15293925  0.31219644     0.11400
H1008       H  0.13203449  0.18409337  0.29174468     0.12600
H1009       H  0.11606514  0.20056452  0.25628151     0.11600
H1010       H  0.18539068  0.14049152  0.21159402     0.08700
H1011       H  0.16492985  0.15362897  0.17752289     0.12000
H1012       H  0.11245527  0.19766222  0.21565960     0.13800
C1013       C  0.22761573  0.08947095  0.55564112    -0.01700
C1014       C  0.22027540  0.11104935  0.54397851    -0.09700
C1015       C  0.21869580  0.11120513  0.52045337    -0.18500
C1016       C  0.22439246  0.08962191  0.50767460     0.03900
C1017       C  0.23195035  0.06781956  0.51956444     0.18000
C1018       C  0.23360193  0.06797495  0.54320691    -0.20000
C1019       C  0.23759156  0.04585378  0.50782811    -0.21200
C1020       C  0.23586057  0.04499841  0.48446444    -0.19800
C1021       C  0.22861328  0.06613635  0.47222273     0.19400
C1022       C  0.22279956  0.08879694  0.48359649     0.01600
C1023       C  0.21570392  0.10958685  0.47033131    -0.14500
C1024       C  0.21453676  0.10792534  0.44684458    -0.12200
C1025       C  0.22031828  0.08554291  0.43570516     0.01100
C1026       C  0.22724939  0.06470061  0.44860264    -0.24400
H1027       H  0.21542954  0.12791376  0.55307387     0.09100
H1028       H  0.21274639  0.12847972  0.51281308     0.12700
H1029       H  0.23924656  0.05109287  0.55195060     0.11400
H1030       H  0.24330850  0.02915410  0.51680001     0.12600
H1031       H  0.24030398  0.02767088  0.47589547     0.11600
H1032       H  0.21100966  0.12745029  0.47755939     0.08700
H1033       H  0.20901850  0.12433501  0.43738260     0.12000
H1034       H  0.23170046  0.04723277  0.44025659     0.13800
C1035       C  0.24021373  0.02341282  0.68929576    -0.01700
C1036       C  0.25504577  0.03263889  0.70682215    -0.09700
C1037       C  0.25803896  0.01887436  0.72681069    -0.18500
C1038       C  0.24617433  0.99540343  0.72971775     0.03900
C1039       C  0.23285140  0.98543232  0.71100630     0.18000
C1040       C  0.22986438  0.99951360  0.69121842    -0.20000
C1041       C  0.22146780  0.96197547  0.71249152    -0.21200
C1042       C  0.22157961  0.94880354  0.73265820    -0.19800
C1043       C  0.23272445  0.95896031  0.75190792     0.19400
C1044       C  0.24583696  0.98203365  0.75070920     0.01600
C1045       C  0.25660716  0.99128866  0.77091069    -0.14500
C1046       C  0.25268371  0.97913873  0.79165386    -0.12200
C1047       C  0.23816504  0.95742190  0.79274747     0.01100
C1048       C  0.22934274  0.94686660  0.77266462    -0.24400
H1049       H  0.26314930  0.05112992  0.70557799     0.09100
H1050       H  0.26904295  0.02737992  0.73993424     0.12700
H1051       H  0.21845706  0.99232895  0.67755935     0.11400
H1052       H  0.21168159  0.95412107  0.69815743     0.12600
H1053       H  0.21185608  0.93105625  0.73346615     0.11600
H1054       H  0.26709290  0.00846596  0.77136282     0.08700
H1055       H  0.25968388  0.98757432  0.80699551     0.12000
H1056       H  0.21834711  0.92984332  0.77342006     0.13800
C1057       C  0.19473624  0.13242352  0.69624566    -0.01700
C1058       C  0.18288025  0.15570313  0.69583007    -0.09700
C1059       C  0.17663470  0.16780404  0.71591898    -0.18500
C1060       C  0.18221906  0.15687000  0.73707360     0.03900
C1061       C  0.19637761  0.13437358  0.73724446     0.18000
C1062       C  0.20225302  0.12227689  0.71693001    -0.20000
C1063       C  0.20357857  0.12348676  0.75769778    -0.21200
C1064       C  0.19567013  0.13361288  0.77809215    -0.19800
C1065       C  0.17983628  0.15444825  0.77845029     0.19400
C1066       C  0.17322543  0.16668275  0.75796221     0.01600
C1067       C  0.15628853  0.18697071  0.75915058    -0.14500
C1068       C  0.14480029  0.19334297  0.77949062    -0.12200
C1069       C  0.15055788  0.18044403  0.79931195     0.01100
C1070       C  0.16898185  0.16190046  0.79898905    -0.24400
H1071       H  0.17722660  0.16396959  0.67994380     0.09100
H1072       H  0.16699585  0.18540528  0.71432343     0.12700
H1073       H  0.21196359  0.10446817  0.71722297     0.11400
H1074       H  0.21478863  0.10659589  0.75791097     0.12600
H1075       H  0.20089964  0.12430679  0.79363264     0.11600
H1076       H  0.15023688  0.19719102  0.74447562     0.08700
H1077       H  0.13034826  0.20758386  0.77955507     0.12000
H1078       H  0.17298296  0.15160528  0.81434153     0.13800
C1079       C  0.81731111  0.84945226  0.29673821    -0.01700
C1080       C  0.80369790  0.85645990  0.27763311    -0.09700
C1081       C  0.80795467  0.84485581  0.25691919    -0.18500
C1082       C  0.82680116  0.82645208  0.25457947     0.03900
C1083       C  0.84003251  0.81895062  0.27431758     0.18000
C1084       C  0.83471936  0.83004355  0.29526034    -0.20000
C1085       C  0.85967154  0.80171254  0.27278810    -0.21200
C1086       C  0.86758383  0.79296820  0.25190164    -0.19800
C1087       C  0.85566057  0.80082606  0.23213766     0.19400
C1088       C  0.83433471  0.81670615  0.23318431     0.01600
C1089       C  0.82253891  0.82330745  0.21260697    -0.14500
C1090       C  0.83325440  0.81679036  0.19185936    -0.12200
C1091       C  0.85563679  0.80329820  0.19119150     0.01100
C1092       C  0.86603214  0.79430851  0.21124019    -0.24400
H1093       H  0.79033361  0.87168349  0.27858489     0.09100
H1094       H  0.79720584  0.85170808  0.24285142     0.12700
H1095       H  0.84561620  0.82507473  0.31002577     0.11400
H1096       H  0.86977952  0.79589418  0.28773460     0.12600
H1097       H  0.88368571  0.78062373  0.25114372     0.11600
H1098       H  0.80566438  0.83435669  0.21198636     0.08700
H1099       H  0.82506843  0.82386297  0.17640898     0.12000
H1100       H  0.88342106  0.78378682  0.21057133     0.13800
C1101       C  0.77114794  0.95423613  0.29391814    -0.01700
C1102       C  0.75835779  0.97705894  0.29375296    -0.09700
C1103       C  0.75405690  0.98968957  0.27334830    -0.18500
C1104       C  0.76248489  0.97969031  0.25250324     0.03900
C1105       C  0.77364292  0.95555347  0.25284166     0.18000
C1106       C  0.77789638  0.94323357  0.27336445    -0.20000
C1107       C  0.78172367  0.94430769  0.23281031    -0.21200
C1108       C  0.78046650  0.95712363  0.21249309    -0.19800
C1109       C  0.77130183  0.98157664  0.21174318     0.19400
C1110       C  0.76149591  0.99308266  0.23154360     0.01600
C1111       C  0.75264891  0.01797101  0.22963425    -0.14500
C1112       C  0.75522257  0.03133346  0.20937036    -0.12200
C1113       C  0.76623874  0.02015771  0.19045258     0.01100
C1114       C  0.77341599  0.99509376  0.19154041    -0.24400
H1115       H  0.75297794  0.98582690  0.30950557     0.09100
H1116       H  0.74483323  0.00756862  0.27446206     0.12700
H1117       H  0.78759306  0.92540649  0.27345780     0.11400
H1118       H  0.78987900  0.92575943  0.23296810     0.12600
H1119       H  0.78769189  0.94820472  0.19739994     0.11600
H1120       H  0.74479863  0.02795384  0.24378093     0.08700
H1121       H  0.74997427  0.05087167  0.20887876     0.12000
H1122       H  0.78226962  0.98658688  0.17693016     0.13800
C1123       C  0.79150736  0.90876903  0.55486358    -0.01700
C1124       C  0.79053262  0.93121454  0.54276018    -0.09700
C1125       C  0.79016365  0.93123854  0.51917836    -0.18500
C1126       C  0.79050141  0.90862222  0.50682039     0.03900
C1127       C  0.79129329  0.88588269  0.51919156     0.18000
C1128       C  0.79197697  0.88615973  0.54289019    -0.20000
C1129       C  0.79125624  0.86295301  0.50786573    -0.21200
C1130       C  0.79045999  0.86206841  0.48443500    -0.19800
C1131       C  0.78983688  0.88408914  0.47171639     0.19400
C1132       C  0.78990634  0.90770920  0.48269451     0.01600
C1133       C  0.78935181  0.92935450  0.46901635    -0.14500
C1134       C  0.78849645  0.92758816  0.44552933    -0.12200
C1135       C  0.78839147  0.90429518  0.43477141     0.01100
C1136       C  0.78916429  0.88259890  0.44802876    -0.24400
H1137       H  0.79026790  0.94893760  0.55155520     0.09100
H1138       H  0.78948027  0.94926653  0.51117085     0.12700
H1139       H  0.79255981  0.86863229  0.55204351     0.11400
H1140       H  0.79176924  0.84555154  0.51720494     0.12600
H1141       H  0.79037799  0.84400671  0.47619767     0.11600
H1142       H  0.78962574  0.94793860  0.47589897     0.08700
H1143       H  0.78824059  0.94466555  0.43571623     0.12000
H1144       H  0.78908290  0.86446577  0.43990796     0.13800
C1145       C  0.82284029  0.85411756  0.69206037    -0.01700
C1146       C  0.80894421  0.85914500  0.71153212    -0.09700
C1147       C  0.81485927  0.84749053  0.73186832    -0.18500
C1148       C  0.83570895  0.83124590  0.73340053     0.03900
C1149       C  0.84900733  0.82542346  0.71320037     0.18000
C1150       C  0.84202089  0.83638365  0.69265028    -0.20000
C1151       C  0.87038626  0.81030751  0.71390869    -0.21200
C1152       C  0.88004794  0.80247186  0.73446211    -0.19800
C1153       C  0.86817911  0.80908462  0.75467872     0.19400
C1154       C  0.84510887  0.82235693  0.75443156     0.01600
C1155       C  0.83330515  0.82741658  0.77537466    -0.14500
C1156       C  0.84527090  0.82191141  0.79570078    -0.12200
C1157       C  0.86916021  0.81120652  0.79566926     0.01100
C1158       C  0.87998217  0.80375643  0.77519369    -0.24400
H1159       H  0.79416551  0.87304422  0.71121192     0.09100
H1160       H  0.80381295  0.85286787  0.74630315     0.12700
H1161       H  0.85302183  0.83295116  0.67753925     0.11400
H1162       H  0.88047834  0.80566948  0.69857314     0.12600
H1163       H  0.89740370  0.79193052  0.73458433     0.11600
H1164       H  0.81521613  0.83625643  0.77661486     0.08700
H1165       H  0.83643854  0.82737134  0.81142999     0.12000
H1166       H  0.89824194  0.79481683  0.77520264     0.13800
C1167       C  0.77405882  0.96026268  0.69592133    -0.01700
C1168       C  0.76151476  0.98323545  0.69620971    -0.09700
C1169       C  0.75739171  0.99583503  0.71668339    -0.18500
C1170       C  0.76589626  0.98572122  0.73743779     0.03900
C1171       C  0.77673648  0.96144794  0.73697631     0.18000
C1172       C  0.78054395  0.94905284  0.71643771    -0.20000
C1173       C  0.78519095  0.95019893  0.75685168    -0.21200
C1174       C  0.78477722  0.96318545  0.77707691    -0.19800
C1175       C  0.77587053  0.98772160  0.77792144     0.19400
C1176       C  0.76546831  0.99916751  0.75837293     0.01600
C1177       C  0.75658633  0.02402812  0.76047642    -0.14500
C1178       C  0.75975459  0.03744565  0.78061588    -0.12200
C1179       C  0.77150412  0.02636428  0.79917765     0.01100
C1180       C  0.77872544  0.00133017  0.79795123    -0.24400
H1181       H  0.75631155  0.99218512  0.68050742     0.09100
H1182       H  0.74846790  0.01387045  0.71566897     0.12700
H1183       H  0.79000224  0.93110022  0.71627873     0.11400
H1184       H  0.79314214  0.93156563  0.75659076     0.12600
H1185       H  0.79240576  0.95430167  0.79200112     0.11600
H1186       H  0.74810990  0.03388481  0.74657969     0.08700
H1187       H  0.75427821  0.05691466  0.78127655     0.12000
H1188       H  0.78798512  0.99284848  0.81233432     0.13800
C1189       C  0.03089759  0.76049528  0.29976962    -0.01700
C1190       C  0.04196742  0.75034242  0.28043549    -0.09700
C1191       C  0.02802975  0.74745189  0.26059817    -0.18500
C1192       C  0.00270377  0.75539672  0.25947729     0.03900
C1193       C  0.99144330  0.76466787  0.27960650     0.18000
C1194       C  0.00548241  0.76677418  0.29949877    -0.20000
C1195       C  0.96671779  0.77337673  0.27945242    -0.21200
C1196       C  0.95341347  0.77476965  0.25939351    -0.19800
C1197       C  0.96435225  0.76704124  0.23908167     0.19400
C1198       C  0.98868166  0.75615185  0.23890367     0.01600
C1199       C  0.99825121  0.74766879  0.21793730    -0.14500
C1200       C  0.98514113  0.75187075  0.19782678    -0.12200
C1201       C  0.96224387  0.76466027  0.19801157     0.01100
C1202       C  0.95153986  0.77129680  0.21878814    -0.24400
H1203       H  0.06176164  0.74579518  0.28034592     0.09100
H1204       H  0.03792864  0.74023343  0.24613692     0.12700
H1205       H  0.99710252  0.77504825  0.31443352     0.11400
H1206       H  0.95799712  0.78024616  0.29478247     0.12600
H1207       H  0.93470195  0.78268072  0.25966760     0.11600
H1208       H  0.01609402  0.73836537  0.21648579     0.08700
H1209       H  0.99363330  0.74635511  0.18196650     0.12000
H1210       H  0.93356089  0.78077996  0.21907835     0.13800
C1211       C  0.14145539  0.80190671  0.29396112    -0.01700
C1212       C  0.16565861  0.81185222  0.29373611    -0.09700
C1213       C  0.17713492  0.81812262  0.27328089    -0.18500
C1214       C  0.16444326  0.81467719  0.25255503     0.03900
C1215       C  0.14122462  0.80170941  0.25295419     0.18000
C1216       C  0.12998821  0.79550240  0.27357014    -0.20000
C1217       C  0.12850246  0.79656983  0.23288893    -0.21200
C1218       C  0.13741411  0.80569355  0.21245407    -0.19800
C1219       C  0.15888045  0.82065483  0.21176097     0.19400
C1220       C  0.17302729  0.82498864  0.23172075     0.01600
C1221       C  0.19384302  0.84126604  0.23031096    -0.14500
C1222       C  0.19912413  0.85412481  0.21038512    -0.12200
C1223       C  0.18458892  0.85031734  0.19113931     0.01100
C1224       C  0.16521217  0.83281812  0.19156204    -0.24400
H1225       H  0.17499364  0.81642038  0.30940733     0.09100
H1226       H  0.19546858  0.82646280  0.27427517     0.12700
H1227       H  0.11148439  0.78710414  0.27379691     0.11400
H1228       H  0.11102587  0.78625983  0.23310755     0.12600
H1229       H  0.12666759  0.80219798  0.19729168     0.11600
H1230       H  0.20541216  0.84565374  0.24462968     0.08700
H1231       H  0.21409572  0.86779185  0.21020086     0.12000
H1232       H  0.15372575  0.83031024  0.17665844     0.13800
C1233       C  0.88485988  0.87532385  0.37363614    -0.01700
C1234       C  0.90518699  0.89080119  0.36836038    -0.09700
C1235       C  0.92975253  0.88250187  0.37106727    -0.18500
C1236       C  0.93491244  0.85804530  0.37879858     0.03900
C1237       C  0.91429327  0.84275337  0.38515500     0.18000
C1238       C  0.88956681  0.85165695  0.38294936    -0.20000
C1239       C  0.91843783  0.81820854  0.39246218    -0.21200
C1240       C  0.94246489  0.80799682  0.39218235    -0.19800
C1241       C  0.96301311  0.82223035  0.38501521     0.19400
C1242       C  0.95963807  0.84777749  0.37916454     0.01600
C1243       C  0.98106174  0.86167937  0.37300944    -0.14500
C1244       C  0.00435688  0.85022983  0.37075726    -0.12200
C1245       C  0.00734367  0.82455976  0.37466799     0.01100
C1246       C  0.98673539  0.81085301  0.38272099    -0.24400
H1247       H  0.90210505  0.90925602  0.36138681     0.09100
H1248       H  0.94421023  0.89536466  0.36598884     0.12700
H1249       H  0.87397385  0.83948531  0.38705212     0.11400
H1250       H  0.90285938  0.80649059  0.39754610     0.12600
H1251       H  0.94488933  0.78863304  0.39704725     0.11600
H1252       H  0.98041353  0.88135953  0.36930848     0.08700
H1253       H  0.01997721  0.86152789  0.36505755     0.12000
H1254       H  0.98880695  0.79106215  0.38610694     0.13800
C1255       C  0.17253313  0.99371828  0.37841655    -0.01700
C1256       C  0.14648601  0.99052741  0.38029858    -0.09700
C1257       C  0.13588165  0.96674812  0.38162095    -0.18500
C1258       C  0.15102479  0.94511754  0.38092210     0.03900
C1259       C  0.17748850  0.94842095  0.38114363     0.18000
C1260       C  0.18797540  0.97254985  0.37988761    -0.20000
C1261       C  0.19331078  0.92756605  0.38160672    -0.21200
C1262       C  0.18347620  0.90351494  0.38088590    -0.19800
C1263       C  0.15759816  0.89968565  0.37906272     0.19400
C1264       C  0.14093289  0.92041967  0.37918266     0.01600
C1265       C  0.11505810  0.91557430  0.37621163    -0.14500
C1266       C  0.10633309  0.89134284  0.37228429    -0.12200
C1267       C  0.12288741  0.87103653  0.37189329     0.01100
C1268       C  0.14840721  0.87529211  0.37601233    -0.24400
H1269       H  0.13404142  0.00650993  0.37981216     0.09100
H1270       H  0.11572405  0.96590063  0.38266497     0.12700
H1271       H  0.20814482  0.97469864  0.37873041     0.11400
H1272       H  0.21348189  0.92987087  0.38207250     0.12600
H1273       H  0.19629446  0.88780226  0.38086334     0.11600
H1274       H  0.10120427  0.93022975  0.37586117     0.08700
H1275       H  0.08653115  0.88850224  0.36921731     0.12000
H1276       H  0.16139696  0.85971183  0.37546889     0.13800
C1277       C  0.88895661  0.88192435  0.61638450    -0.01700
C1278       C  0.90925283  0.89797348  0.62003581    -0.09700
C1279       C  0.93388678  0.88965994  0.61724867    -0.18500
C1280       C  0.93911192  0.86461947  0.61120335     0.03900
C1281       C  0.91846197  0.84866487  0.60662335     0.18000
C1282       C  0.89371709  0.85754411  0.60880363    -0.20000
C1283       C  0.92259828  0.82357438  0.60107821    -0.21200
C1284       C  0.94670629  0.81358701  0.60130191    -0.19800
C1285       C  0.96735249  0.82852611  0.60671402     0.19400
C1286       C  0.96394550  0.85448201  0.61083620     0.01600
C1287       C  0.98547152  0.86894178  0.61536112    -0.14500
C1288       C  0.00893548  0.85776900  0.61774270    -0.12200
C1289       C  0.01198921  0.83184571  0.61554212     0.01100
C1290       C  0.99122588  0.81747389  0.60903474    -0.24400
H1291       H  0.90609463  0.91694521  0.62572308     0.09100
H1292       H  0.94837025  0.90301294  0.62091008     0.12700
H1293       H  0.87815943  0.84490735  0.60607190     0.11400
H1294       H  0.90697694  0.81133355  0.59739820     0.12600
H1295       H  0.94913402  0.79387250  0.59780198     0.11600
H1296       H  0.98475106  0.88885502  0.61771287     0.08700
H1297       H  0.02466640  0.86954085  0.62218220     0.12000
H1298       H  0.99331312  0.79747218  0.60695985     0.13800
C1299       C  0.12888198  0.87961518  0.61445095    -0.01700
C1300       C  0.11264420  0.90014617  0.61379781    -0.09700
C1301       C  0.12192625  0.92436004  0.61109398    -0.18500
C1302       C  0.14802526  0.92889662  0.60962705     0.03900
C1303       C  0.16435663  0.90789193  0.60953077     0.18000
C1304       C  0.15465802  0.88356341  0.61145685    -0.20000
C1305       C  0.19035313  0.91132380  0.60866379    -0.21200
C1306       C  0.20058400  0.93520122  0.60891044    -0.19800
C1307       C  0.18507610  0.95627470  0.60973952     0.19400
C1308       C  0.15856119  0.95346686  0.60943487     0.01600
C1309       C  0.14378021  0.97538136  0.60985819    -0.14500
C1310       C  0.15479391  0.99886295  0.61218380    -0.12200
C1311       C  0.18087495  0.00146753  0.61391085     0.01100
C1312       C  0.19594606  0.98010467  0.61183138    -0.24400
H1313       H  0.09264476  0.89751625  0.61597541     0.09100
H1314       H  0.10825038  0.93913793  0.61113399     0.12700
H1315       H  0.16738059  0.86778520  0.61219540     0.11400
H1316       H  0.20290790  0.89540380  0.60853144     0.12600
H1317       H  0.22079704  0.93717630  0.60896504     0.11600
H1318       H  0.12364129  0.97500728  0.60899596     0.08700
H1319       H  0.14265779  0.01504198  0.61338827     0.12000
H1320       H  0.21613563  0.98182598  0.61307979     0.13800
C1321       C  0.09687496  0.78133566  0.55495073    -0.01700
C1322       C  0.07635475  0.77031067  0.54415458    -0.09700
C1323       C  0.07520706  0.76903295  0.52070399    -0.18500
C1324       C  0.09463789  0.77884506  0.50707368     0.03900
C1325       C  0.11546550  0.78999936  0.51805364     0.18000
C1326       C  0.11640679  0.79112596  0.54172287    -0.20000
C1327       C  0.13523032  0.79996937  0.50534584    -0.21200
C1328       C  0.13481887  0.79902901  0.48190222    -0.19800
C1329       C  0.11460890  0.78813843  0.47057704     0.19400
C1330       C  0.09417021  0.77796787  0.48299315     0.01600
C1331       C  0.07413570  0.76740217  0.47073521    -0.14500
C1332       C  0.07439469  0.76689410  0.44723821    -0.12200
C1333       C  0.09460234  0.77678835  0.43501759     0.01100
C1334       C  0.11468638  0.78739947  0.44686398    -0.24400
H1335       H  0.06101379  0.76252092  0.55387079     0.09100
H1336       H  0.05878635  0.76017696  0.51381155     0.12700
H1337       H  0.13240663  0.79974715  0.54983279     0.11400
H1338       H  0.15115524  0.80852979  0.51360249     0.12600
H1339       H  0.15043449  0.80688361  0.47255607     0.11600
H1340       H  0.05785934  0.75937806  0.47876201     0.08700
H1341       H  0.05859715  0.75860744  0.43860729     0.12000
H1342       H  0.13037686  0.79529905  0.43763026     0.13800
C1343       C  0.04447505  0.77258669  0.69601902    -0.01700
C1344       C  0.02298220  0.75769546  0.69735738    -0.09700
C1345       C  0.01061566  0.75435420  0.71810155    -0.18500
C1346       C  0.01950026  0.76599558  0.73803635     0.03900
C1347       C  0.04218990  0.77982174  0.73653780     0.18000
C1348       C  0.05441046  0.78272743  0.71581376    -0.20000
C1349       C  0.05201603  0.79183439  0.75547720    -0.21200
C1350       C  0.03902559  0.79172950  0.77574134    -0.19800
C1351       C  0.01605299  0.77937881  0.77759475     0.19400
C1352       C  0.00625883  0.76556645  0.75910244     0.01600
C1353       C  0.98316359  0.75296349  0.76236023    -0.14500
C1354       C  0.96964145  0.75550865  0.78257569    -0.12200
C1355       C  0.97879742  0.77060756  0.79992935     0.01100
C1356       C  0.00227883  0.78180790  0.79759932    -0.24400
H1357       H  0.01501230  0.74972913  0.68219931     0.09100
H1358       H  0.99369141  0.74337713  0.71787843     0.12700
H1359       H  0.07124800  0.79404768  0.71486806     0.11400
H1360       H  0.06944824  0.80216862  0.75439464     0.12600
H1361       H  0.04666751  0.80199250  0.78989789     0.11600
H1362       H  0.97476736  0.74167775  0.74936843     0.08700
H1363       H  0.95140552  0.74679714  0.78416985     0.12000
H1364       H  0.00935169  0.79342845  0.81116205     0.13800
C1365       C  0.14908032  0.81192402  0.69286788    -0.01700
C1366       C  0.17247135  0.82355830  0.69314605    -0.09700
C1367       C  0.18427980  0.82851180  0.71364537    -0.18500
C1368       C  0.17277549  0.82192375  0.73438213     0.03900
C1369       C  0.15057574  0.80731884  0.73365501     0.18000
C1370       C  0.13881124  0.80271320  0.71297475    -0.20000
C1371       C  0.13940763  0.79882161  0.75363087    -0.21200
C1372       C  0.14865370  0.80627837  0.77445925    -0.19800
C1373       C  0.16868345  0.82307048  0.77568842     0.19400
C1374       C  0.18142692  0.83070273  0.75568149     0.01600
C1375       C  0.20063273  0.84872361  0.75766612    -0.14500
C1376       C  0.20532991  0.86029452  0.77825618    -0.12200
C1377       C  0.19190426  0.85349176  0.79758132     0.01100
C1378       C  0.17459284  0.83397986  0.79654452    -0.24400
H1379       H  0.18084950  0.83027026  0.67760841     0.09100
H1380       H  0.20196675  0.83819277  0.71276272     0.12700
H1381       H  0.12094302  0.79305731  0.71258283     0.11400
H1382       H  0.12282097  0.78715463  0.75313440     0.12600
H1383       H  0.13903072  0.80019189  0.78963077     0.11600
H1384       H  0.21107004  0.85561714  0.74335935     0.08700
H1385       H  0.21871393  0.87548898  0.77890565     0.12000
H1386       H  0.16394244  0.82908467  0.81153563     0.13800
C1387       C  0.81429050  0.12842245  0.19555968    -0.01700
C1388       C  0.80190782  0.12177680  0.21547739    -0.09700
C1389       C  0.80767846  0.13362546  0.23573808    -0.18500
C1390       C  0.82690792  0.15176105  0.23669000     0.03900
C1391       C  0.83888675  0.15880833  0.21614791     0.18000
C1392       C  0.83190698  0.14767277  0.19574789    -0.20000
C1393       C  0.85897285  0.17556407  0.21626649    -0.21200
C1394       C  0.86865007  0.18412820  0.23653024    -0.19800
C1395       C  0.85793178  0.17670490  0.25702974     0.19400
C1396       C  0.83606919  0.16158048  0.25742202     0.01600
C1397       C  0.82523490  0.15585543  0.27865862    -0.14500
C1398       C  0.83728872  0.16248450  0.29866037    -0.12200
C1399       C  0.86023833  0.17497212  0.29792034     0.01100
C1400       C  0.86982292  0.18311102  0.27719025    -0.24400
H1401       H  0.78824910  0.10680714  0.21546310     0.09100
H1402       H  0.79786247  0.12710402  0.25050854     0.12700
H1403       H  0.84175868  0.15242810  0.18028693     0.11400
H1404       H  0.86810605  0.18103178  0.20066161     0.12600
H1405       H  0.88506825  0.19602149  0.23619382     0.11600
H1406       H  0.80793581  0.14567079  0.28034470     0.08700
H1407       H  0.82947643  0.15643127  0.31465294     0.12000
H1408       H  0.88734065  0.19335313  0.27673255     0.13800
C1409       C  0.96201851  0.22280416  0.29392836    -0.01700
C1410       C  0.98344961  0.23773456  0.29244251    -0.09700
C1411       C  0.99513650  0.24173878  0.27150034    -0.18500
C1412       C  0.98565151  0.23062226  0.25155350     0.03900
C1413       C  0.96269887  0.21724457  0.25318183     0.18000
C1414       C  0.95109976  0.21373898  0.27414006    -0.20000
C1415       C  0.95228709  0.20583774  0.23418297    -0.21200
C1416       C  0.96527414  0.20550110  0.21389727    -0.19800
C1417       C  0.98876163  0.21688295  0.21209378     0.19400
C1418       C  0.99882336  0.23068997  0.23046447     0.01600
C1419       C  0.02229809  0.24256600  0.22720810    -0.14500
C1420       C  0.03611209  0.23892596  0.20730809    -0.12200
C1421       C  0.02685714  0.22346720  0.19027283     0.01100
C1422       C  0.00286503  0.21329807  0.19240157    -0.24400
H1423       H  0.99204837  0.24499358  0.30761492     0.09100
H1424       H  0.01217950  0.25251367  0.27160883     0.12700
H1425       H  0.93427582  0.20244906  0.27528603     0.11400
H1426       H  0.93460677  0.19596759  0.23532468     0.12600
H1427       H  0.95733779  0.19539958  0.19977317     0.11600
H1428       H  0.03080736  0.25400996  0.24001922     0.08700
H1429       H  0.05464025  0.24701763  0.20577914     0.12000
H1430       H  0.99565068  0.20151587  0.17901419     0.13800
C1431       C  0.11956127  0.10795760  0.37806817    -0.01700
C1432       C  0.11645194  0.13204755  0.38689937    -0.09700
C1433       C  0.09253932  0.14246647  0.38938434    -0.18500
C1434       C  0.07087496  0.12898481  0.38309239     0.03900
C1435       C  0.07406356  0.10368483  0.37633995     0.18000
C1436       C  0.09820411  0.09351632  0.37377326    -0.20000
C1437       C  0.05319735  0.08903621  0.37108067    -0.21200
C1438       C  0.02933847  0.09943441  0.37083044    -0.19800
C1439       C  0.02583838  0.12484679  0.37538955     0.19400
C1440       C  0.04638198  0.13992480  0.38214753     0.01600
C1441       C  0.04169837  0.16558149  0.38623121    -0.14500
C1442       C  0.01804097  0.17606913  0.38220001    -0.12200
C1443       C  0.99821535  0.16132423  0.37432961     0.01100
C1444       C  0.00210885  0.13549784  0.37195515    -0.24400
H1445       H  0.13263331  0.14346698  0.39073692     0.09100
H1446       H  0.09165043  0.16132963  0.39563497     0.12700
H1447       H  0.10038755  0.07463093  0.36747241     0.11400
H1448       H  0.05543025  0.06960024  0.36639639     0.12600
H1449       H  0.01366449  0.08777066  0.36597598     0.11600
H1450       H  0.05619549  0.17823302  0.39157022     0.08700
H1451       H  0.01556688  0.19598628  0.38444748     0.12000
H1452       H  0.98690817  0.12369693  0.36621816     0.13800
C1453       C  0.83438632  0.98782929  0.37168406    -0.01700
C1454       C  0.82017788  0.00680070  0.38182760    -0.09700
C1455       C  0.83045962  0.03050948  0.38544206    -0.18500
C1456       C  0.85530774  0.03610398  0.37865480     0.03900
C1457       C  0.86993455  0.01642990  0.36934840     0.18000
C1458       C  0.85957366  0.99263206  0.36633010    -0.20000
C1459       C  0.89448441  0.02085119  0.36201720    -0.21200
C1460       C  0.90438937  0.04478881  0.36242446    -0.19800
C1461       C  0.89011737  0.06480736  0.37049715     0.19400
C1462       C  0.86575844  0.06068901  0.37957244     0.01600
C1463       C  0.85261493  0.08158147  0.38821048    -0.14500
C1464       C  0.86234743  0.10572920  0.38605190    -0.12200
C1465       C  0.88546167  0.10980504  0.37535331     0.01100
C1466       C  0.89967421  0.08910258  0.36852514    -0.24400
H1467       H  0.80075910  0.00359494  0.38633912     0.09100
H1468       H  0.81819908  0.04430035  0.39277804     0.12700
H1469       H  0.87094259  0.97812116  0.35867269     0.11400
H1470       H  0.90578091  0.00585568  0.35508488     0.12600
H1471       H  0.92309939  0.04777599  0.35577572     0.11600
H1472       H  0.83447311  0.07994789  0.39610150     0.08700
H1473       H  0.85110595  0.12135583  0.39176820     0.12000
H1474       H  0.91781637  0.09195822  0.36063380     0.13800
C1475       C  0.00783912  0.16848507  0.61553614    -0.01700
C1476       C  0.01074501  0.14245927  0.61480730    -0.09700
C1477       C  0.03442133  0.13157261  0.61314410    -0.18500
C1478       C  0.05628351  0.14640000  0.61234792     0.03900
C1479       C  0.05324891  0.17276549  0.61119897     0.18000
C1480       C  0.02916871  0.18355695  0.61279136    -0.20000
C1481       C  0.07434684  0.18818096  0.60932375    -0.21200
C1482       C  0.09840799  0.17803149  0.60931446    -0.19800
C1483       C  0.10203136  0.15225300  0.61176408     0.19400
C1484       C  0.08099304  0.13604687  0.61330140     0.01600
C1485       C  0.08559367  0.11032319  0.61691831    -0.14500
C1486       C  0.10993506  0.10125684  0.61963539    -0.12200
C1487       C  0.13059237  0.11725842  0.61824654     0.01100
C1488       C  0.12655250  0.14267644  0.61370033    -0.24400
H1489       H  0.99461797  0.13028739  0.61631623     0.09100
H1490       H  0.03497780  0.11146459  0.61290688     0.12700
H1491       H  0.02721182  0.20370534  0.61309298     0.11400
H1492       H  0.07224447  0.20827350  0.60819990     0.12600
H1493       H  0.11432358  0.19053014  0.60814073     0.11600
H1494       H  0.07075009  0.09683430  0.61866496     0.08700
H1495       H  0.11261073  0.08159171  0.62322019     0.12000
H1496       H  0.14244612  0.15526627  0.61301512     0.13800
C1497       C  0.89386595  0.11593846  0.61644074    -0.01700
C1498       C  0.90923979  0.09549779  0.62151153    -0.09700
C1499       C  0.90022907  0.07110350  0.61991023    -0.18500
C1500       C  0.87512065  0.06628746  0.61362294     0.03900
C1501       C  0.85999079  0.08697395  0.60723661     0.18000
C1502       C  0.86956930  0.11146895  0.60833821    -0.20000
C1503       C  0.83500467  0.08319069  0.60090117    -0.21200
C1504       C  0.82431968  0.05947865  0.60187925    -0.19800
C1505       C  0.83837456  0.03887288  0.60907651     0.19400
C1506       C  0.86417620  0.04189597  0.61446431     0.01600
C1507       C  0.87765628  0.02051962  0.62134649    -0.14500
C1508       C  0.86576176  0.99754091  0.62400189    -0.12200
C1509       C  0.84002354  0.99474106  0.61980959     0.01100
C1510       C  0.82658042  0.01543230  0.61169077    -0.24400
H1511       H  0.92819601  0.09840445  0.62747182     0.09100
H1512       H  0.91314708  0.05654824  0.62452396     0.12700
H1513       H  0.85749438  0.12714653  0.60435761     0.11400
H1514       H  0.82339246  0.09881834  0.59582774     0.12600
H1515       H  0.80473198  0.05735888  0.59750406     0.11600
H1516       H  0.89731528  0.02097135  0.62530900     0.08700
H1517       H  0.87685184  0.98193355  0.62997480     0.12000
H1518       H  0.80671935  0.01359706  0.60829875     0.13800
C1519       C  0.91813923  0.21381991  0.55482613    -0.01700
C1520       C  0.93870780  0.22253475  0.54239098    -0.09700
C1521       C  0.93846379  0.22220561  0.51887672    -0.18500
C1522       C  0.91752328  0.21298814  0.50690887     0.03900
C1523       C  0.89672049  0.20408247  0.51959005     0.18000
C1524       C  0.89714637  0.20470997  0.54325075    -0.20000
C1525       C  0.87567541  0.19440576  0.50860572    -0.21200
C1526       C  0.87483559  0.19332081  0.48519378    -0.19800
C1527       C  0.89494233  0.20206168  0.47220150     0.19400
C1528       C  0.91653762  0.21213104  0.48286195     0.01600
C1529       C  0.93620494  0.22092475  0.46897319    -0.14500
C1530       C  0.93460142  0.21957081  0.44557253    -0.12200
C1531       C  0.91340163  0.20947728  0.43508881     0.01100
C1532       C  0.89357804  0.20079549  0.44856205    -0.37200
H1533       H  0.95519696  0.22962129  0.55085401     0.09100
H1534       H  0.95507479  0.22913029  0.51063635     0.12700
H1535       H  0.88114813  0.19774412  0.55265707     0.11400
H1536       H  0.85978420  0.18752288  0.51819625     0.12600
H1537       H  0.85831486  0.18563061  0.47719209     0.11600
H1538       H  0.95310292  0.22903978  0.47559495     0.08700
H1539       H  0.95017467  0.22655346  0.43564882     0.12000
H1540       H  0.87704717  0.19295980  0.44067713     0.13800
C1541       C  0.97788725  0.23010189  0.69103901    -0.01700
C1542       C  0.96456070  0.23584109  0.71069118    -0.09700
C1543       C  0.97710780  0.23947048  0.73112072    -0.18500
C1544       C  0.00347602  0.23676167  0.73250168     0.03900
C1545       C  0.01690394  0.23204710  0.71214181     0.18000
C1546       C  0.00405051  0.22902433  0.69166480    -0.20000
C1547       C  0.04291536  0.22872154  0.71254609    -0.21200
C1548       C  0.05570119  0.22801973  0.73292919    -0.19800
C1549       C  0.04283991  0.23106646  0.75335323     0.19400
C1550       C  0.01678309  0.23674195  0.75344500     0.01600
C1551       C  0.00502753  0.24075116  0.77460927    -0.14500
C1552       C  0.01807993  0.23696228  0.79478084    -0.12200
C1553       C  0.04306927  0.22911721  0.79442240     0.01100
C1554       C  0.05560282  0.22706819  0.77373277    -0.24400
H1555       H  0.94425357  0.23629488  0.71046271     0.09100
H1556       H  0.96556071  0.24305481  0.74569744     0.12700
H1557       H  0.01426948  0.22410141  0.67645146     0.11400
H1558       H  0.05327668  0.22543798  0.69707104     0.12600
H1559       H  0.07565572  0.22419753  0.73275539     0.11600
H1560       H  0.98560909  0.24601678  0.77612923     0.08700
H1561       H  0.00815849  0.23863605  0.81069160     0.12000
H1562       H  0.07504887  0.22112834  0.77350958     0.13800
C1563       C  0.87162612  0.17895448  0.69373217    -0.01700
C1564       C  0.84952996  0.16503701  0.69259874    -0.09700
C1565       C  0.83684203  0.15832199  0.71229639    -0.18500
C1566       C  0.84598289  0.16552441  0.73372182     0.03900
C1567       C  0.86703848  0.18173935  0.73447201     0.18000
C1568       C  0.87980739  0.18802313  0.71457080    -0.20000
C1569       C  0.87588548  0.19066778  0.75514184    -0.21200
C1570       C  0.86515806  0.18266185  0.77527720    -0.19800
C1571       C  0.84588154  0.16496218  0.77518952     0.19400
C1572       C  0.83578519  0.15634892  0.75439049     0.01600
C1573       C  0.81725389  0.13752302  0.75516520    -0.14500
C1574       C  0.81040993  0.12651324  0.77556649    -0.12200
C1575       C  0.82108124  0.13447091  0.79583736     0.01100
C1576       C  0.83789812  0.15447734  0.79571874    -0.24400
H1577       H  0.84278982  0.15819162  0.67652466     0.09100
H1578       H  0.82023406  0.14711554  0.71022032     0.12700
H1579       H  0.89666039  0.19932115  0.71533335     0.11400
H1580       H  0.89163285  0.20342411  0.75576200     0.12600
H1581       H  0.87285377  0.18939282  0.79104655     0.11600
H1582       H  0.80882019  0.12979819  0.74021652     0.08700
H1583       H  0.79742874  0.11096191  0.77543776     0.12000
H1584       H  0.84649249  0.16031165  0.81142450     0.13800
C1585       C  0.38349929  0.21853097  0.63314965    -0.01700
C1586       C  0.36661798  0.21753341  0.65123043    -0.09700
C1587       C  0.35061867  0.19723236  0.65409468    -0.18500
C1588       C  0.35041023  0.17733275  0.63843436     0.03900
C1589       C  0.36834637  0.17781578  0.62060013     0.18000
C1590       C  0.38505488  0.19814215  0.61835879    -0.20000
C1591       C  0.36849622  0.15872201  0.60444416    -0.21200
C1592       C  0.35031947  0.14000885  0.60483585    -0.19800
C1593       C  0.33167855  0.13971323  0.62155099     0.19400
C1594       C  0.33204596  0.15787530  0.63906414     0.01600
C1595       C  0.31314647  0.15658038  0.65580324    -0.14500
C1596       C  0.29341946  0.13968061  0.65398511    -0.12200
C1597       C  0.29210987  0.12296763  0.63590704     0.01100
C1598       C  0.31188548  0.12225174  0.62024330    -0.24400
H1599       H  0.36527815  0.23302082  0.66294084     0.09100
H1600       H  0.33792758  0.19829132  0.66820560     0.12700
H1601       H  0.39797995  0.19891991  0.60422356     0.11400
H1602       H  0.38217823  0.15879237  0.59089036     0.12600
H1603       H  0.35039566  0.12610347  0.59156296     0.11600
H1604       H  0.31249887  0.16893604  0.67009992     0.08700
H1605       H  0.27848986  0.14029524  0.66642326     0.12000
H1606       H  0.31092437  0.10939122  0.60615525     0.13800
C1607       C  0.37190707  0.21315143  0.35446089    -0.01700
C1608       C  0.35369528  0.21368701  0.33755212    -0.09700
C1609       C  0.33734709  0.19371556  0.33449105    -0.18500
C1610       C  0.33813012  0.17263310  0.34885200     0.03900
C1611       C  0.35749489  0.17155422  0.36531108     0.18000
C1612       C  0.37443471  0.19164046  0.36777068    -0.20000
C1613       C  0.35896064  0.15103224  0.37993393    -0.21200
C1614       C  0.34074432  0.13237232  0.37952630    -0.19800
C1615       C  0.32057861  0.13371980  0.36447861     0.19400
C1616       C  0.31948991  0.15342916  0.34838430     0.01600
C1617       C  0.29892153  0.15388060  0.33340488    -0.14500
C1618       C  0.27913366  0.13710617  0.33579712    -0.12200
C1619       C  0.27934107  0.11882175  0.35270401     0.01100
C1620       C  0.30072203  0.11638457  0.36627700    -0.24400
H1621       H  0.35167559  0.23006996  0.32694998     0.09100
H1622       H  0.32369885  0.19586461  0.32127678     0.12700
H1623       H  0.38848234  0.19121872  0.38094857     0.11400
H1624       H  0.37378408  0.14986525  0.39235073     0.12600
H1625       H  0.34193526  0.11726325  0.39165896     0.11600
H1626       H  0.29699157  0.16759339  0.32021293     0.08700
H1627       H  0.26305519  0.13901788  0.32479452     0.12000
H1628       H  0.30107131  0.10221933  0.37936149     0.13800
C1629       C  0.41129468  0.27956713  0.43334542    -0.01700
C1630       C  0.43245514  0.26969003  0.44412379    -0.09700
C1631       C  0.43451855  0.26999840  0.46758086    -0.18500
C1632       C  0.41534557  0.28025883  0.48124664     0.03900
C1633       C  0.39384103  0.29019137  0.47030024     0.18000
C1634       C  0.39202002  0.28978584  0.44663016    -0.20000
C1635       C  0.37427575  0.30050749  0.48303667    -0.21200
C1636       C  0.37557118  0.30116777  0.50646016    -0.19800
C1637       C  0.39647926  0.29156096  0.51775279     0.19400
C1638       C  0.41671772  0.28101391  0.50533391     0.01600
C1639       C  0.43743533  0.27171051  0.51759654    -0.14500
C1640       C  0.43796894  0.27276864  0.54112093    -0.12200
C1641       C  0.41792630  0.28302094  0.55333256     0.01100
C1642       C  0.39723017  0.29242448  0.54144986    -0.24400
H1643       H  0.44767836  0.26169847  0.43438147     0.09100
H1644       H  0.45139552  0.26204399  0.47444672     0.12700
H1645       H  0.37551392  0.29748265  0.43856485     0.11400
H1646       H  0.35782695  0.30811512  0.47482172     0.12600
H1647       H  0.36008607  0.30926162  0.51581741     0.11600
H1648       H  0.45356497  0.26347530  0.50955964     0.08700
H1649       H  0.45418485  0.26531307  0.54978348     0.12000
H1650       H  0.38161420  0.30051442  0.55064186     0.13800
C1651       C  0.13170826  0.71758890  0.63519608    -0.01700
C1652       C  0.14880305  0.71674512  0.65301346    -0.09700
C1653       C  0.16566025  0.69699531  0.65517164    -0.18500
C1654       C  0.16651595  0.67756964  0.63903315     0.03900
C1655       C  0.14805704  0.67760573  0.62173935     0.18000
C1656       C  0.13067698  0.69747599  0.62007048    -0.20000
C1657       C  0.14795962  0.65850093  0.60559042    -0.21200
C1658       C  0.16649694  0.64009054  0.60556763    -0.19800
C1659       C  0.18580935  0.64041170  0.62154843     0.19400
C1660       C  0.18577599  0.65891471  0.63878997     0.01600
C1661       C  0.20585944  0.65883393  0.65429193    -0.14500
C1662       C  0.22585850  0.64229309  0.65187834    -0.12200
C1663       C  0.22644555  0.62476588  0.63437883     0.01100
C1664       C  0.20588477  0.62323242  0.61971920    -0.24400
H1665       H  0.14978451  0.73207673  0.66490913     0.09100
H1666       H  0.17834525  0.69802175  0.66922993     0.12700
H1667       H  0.11760188  0.69817189  0.60611220     0.11400
H1668       H  0.13384788  0.65818928  0.59247928     0.12600
H1669       H  0.16621928  0.62600834  0.59245061     0.11600
H1670       H  0.20728120  0.67198265  0.66795351     0.08700
H1671       H  0.24149250  0.64374011  0.66344329     0.12000
H1672       H  0.20634279  0.60989241  0.60597351     0.13800
C1673       C  0.33850004  0.50199600  0.62011231    -0.01700
C1674       C  0.36463498  0.49936081  0.62152555    -0.09700
C1675       C  0.37605421  0.47602899  0.61949523    -0.18500
C1676       C  0.36168183  0.45423445  0.61607156     0.03900
C1677       C  0.33535035  0.45708819  0.61326809     0.18000
C1678       C  0.32403831  0.48078368  0.61533104    -0.20000
C1679       C  0.32039230  0.43616022  0.60903702    -0.21200
C1680       C  0.33089980  0.41238298  0.60809004    -0.19800
C1681       C  0.35655680  0.40882518  0.61186477     0.19400
C1682       C  0.37236938  0.42970393  0.61587841     0.01600
C1683       C  0.39795113  0.42498551  0.62054747    -0.14500
C1684       C  0.40712146  0.40059996  0.62211619    -0.12200
C1685       C  0.39138668  0.38009440  0.61849182     0.01100
C1686       C  0.36627690  0.38439293  0.61267773    -0.24400
H1687       H  0.37642596  0.51539852  0.62480650     0.09100
H1688       H  0.39618521  0.47566714  0.62095306     0.12700
H1689       H  0.30384117  0.48251429  0.61405852     0.11400
H1690       H  0.30034914  0.43815498  0.60670466     0.12600
H1691       H  0.31871763  0.39656401  0.60504875     0.11600
H1692       H  0.41117505  0.43969176  0.62397740     0.08700
H1693       H  0.42656455  0.39774265  0.62667431     0.12000
H1694       H  0.35385816  0.36861362  0.61020543     0.13800
C1695       C  0.21708784  0.61385010  0.35505734    -0.01700
C1696       C  0.19716718  0.61128143  0.37031972    -0.09700
C1697       C  0.17630612  0.62725926  0.36910021    -0.18500
C1698       C  0.17501385  0.64641497  0.35259105     0.03900
C1699       C  0.19453272  0.64747542  0.33620162     0.18000
C1700       C  0.21506574  0.63120431  0.33750243    -0.20000
C1701       C  0.19443725  0.66589693  0.31946642    -0.21200
C1702       C  0.17655176  0.68469393  0.31973215    -0.19800
C1703       C  0.15815417  0.68532000  0.33656953     0.19400
C1704       C  0.15622059  0.66559452  0.35258467     0.01600
C1705       C  0.13644596  0.66687809  0.36858393    -0.14500
C1706       C  0.12091746  0.68801732  0.36992864    -0.12200
C1707       C  0.12473329  0.70834532  0.35544716     0.01100
C1708       C  0.14261646  0.70636348  0.33822709    -0.24400
H1709       H  0.19846518  0.59802374  0.38408359     0.09100
H1710       H  0.16212809  0.62503112  0.38194836     0.12700
H1711       H  0.23045542  0.63312945  0.32560629     0.11400
H1712       H  0.20906377  0.66651041  0.30673904     0.12600
H1713       H  0.17774320  0.69941651  0.30720862     0.11600
H1714       H  0.13313975  0.65224779  0.38074394     0.08700
H1715       H  0.10693950  0.68910246  0.38318719     0.12000
H1716       H  0.14525614  0.72190196  0.32669342     0.13800
C1717       C  0.33600859  0.49870776  0.37096556    -0.01700
C1718       C  0.36183643  0.49568393  0.36723552    -0.09700
C1719       C  0.37311885  0.47219356  0.36884797    -0.18500
C1720       C  0.35881152  0.45073297  0.37403885     0.03900
C1721       C  0.33306367  0.45420257  0.37954848     0.18000
C1722       C  0.32198872  0.47798787  0.37805191    -0.20000
C1723       C  0.31821990  0.43373768  0.38560426    -0.21200
C1724       C  0.32809482  0.40972773  0.38544696    -0.19800
C1725       C  0.35292832  0.40550531  0.37879913     0.19400
C1726       C  0.36878711  0.42591758  0.37317822     0.01600
C1727       C  0.39345381  0.42043019  0.36579469    -0.14500
C1728       C  0.40151755  0.39573223  0.36309706    -0.12200
C1729       C  0.38555161  0.37569345  0.36815923     0.01100
C1730       C  0.36155578  0.38083273  0.37670318    -0.24400
H1731       H  0.37331317  0.51143447  0.36224508     0.09100
H1732       H  0.39295875  0.47134925  0.36542150     0.12700
H1733       H  0.30206872  0.48005659  0.38123509     0.11400
H1734       H  0.29865710  0.43625340  0.39004228     0.12600
H1735       H  0.31593426  0.39424152  0.38979885     0.11600
H1736       H  0.40662937  0.43478868  0.36110456     0.08700
H1737       H  0.42016572  0.39232099  0.35650049     0.12000
H1738       H  0.34891310  0.36553181  0.38047300     0.13800
C1739       C  0.28469175  0.58409416  0.43491407    -0.01700
C1740       C  0.29059083  0.60647077  0.44595885    -0.09700
C1741       C  0.29187407  0.60767734  0.46938476    -0.18500
C1742       C  0.28731199  0.58640183  0.48286555     0.03900
C1743       C  0.28085381  0.56377462  0.47175530     0.18000
C1744       C  0.27963325  0.56279211  0.44800745    -0.20000
C1745       C  0.27574377  0.54228258  0.48443591    -0.21200
C1746       C  0.27685331  0.54279465  0.50790711    -0.19800
C1747       C  0.28327677  0.56476273  0.51931282     0.19400
C1748       C  0.28880733  0.58683867  0.50694083     0.01600
C1749       C  0.29567338  0.60838585  0.51922322    -0.14500
C1750       C  0.29646081  0.60819318  0.54272387    -0.12200
C1751       C  0.29051119  0.58658177  0.55495296     0.01100
C1752       C  0.28413654  0.56482196  0.54305151    -0.24400
H1753       H  0.29443158  0.62332037  0.43644241     0.09100
H1754       H  0.29646900  0.62566377  0.47637387     0.12700
H1755       H  0.27494560  0.54536409  0.43974324     0.11400
H1756       H  0.27078109  0.52495758  0.47614468     0.12600
H1757       H  0.27267862  0.52585840  0.51721027     0.11600
H1758       H  0.30062198  0.62578057  0.51121626     0.08700
H1759       H  0.30171512  0.62521487  0.55134632     0.12000
H1760       H  0.27971343  0.54786937  0.55225156     0.13800
C1761       C  0.63166048  0.78046663  0.63511186    -0.01700
C1762       C  0.64844130  0.78174865  0.65315558    -0.09700
C1763       C  0.66507460  0.80165385  0.65529498    -0.18500
C1764       C  0.66606545  0.82086917  0.63893897     0.03900
C1765       C  0.64789870  0.82048059  0.62139600     0.18000
C1766       C  0.63070856  0.80041815  0.61971860    -0.20000
C1767       C  0.64791849  0.83944869  0.60506336    -0.21200
C1768       C  0.66635653  0.85795991  0.60507144    -0.19800
C1769       C  0.68546483  0.85789454  0.62126748     0.19400
C1770       C  0.68522146  0.83962585  0.63874055     0.01600
C1771       C  0.70506447  0.83997676  0.65449791    -0.14500
C1772       C  0.72511906  0.85643008  0.65207074    -0.12200
C1773       C  0.72597858  0.87365250  0.63432323     0.01100
C1774       C  0.70559381  0.87501915  0.61942087    -0.24400
H1775       H  0.64931247  0.76665571  0.66533078     0.09100
H1776       H  0.67749190  0.80092526  0.66957094     0.12700
H1777       H  0.61783840  0.79948778  0.60562332     0.11400
H1778       H  0.63400985  0.83955262  0.59177773     0.12600
H1779       H  0.66619848  0.87188951  0.59179149     0.11600
H1780       H  0.70630165  0.82703236  0.66836768     0.08700
H1781       H  0.74063577  0.85509235  0.66377689     0.12000
H1782       H  0.70627501  0.88811864  0.60546823     0.13800
C1783       C  0.51066564  0.66690991  0.61899786    -0.01700
C1784       C  0.49164799  0.68049172  0.60820908    -0.09700
C1785       C  0.46776073  0.67009514  0.60511046    -0.18500
C1786       C  0.46201526  0.64581321  0.61312078     0.03900
C1787       C  0.48165869  0.63190082  0.62331166     0.18000
C1788       C  0.50560154  0.64227760  0.62572737    -0.20000
C1789       C  0.47710172  0.60807226  0.63209133    -0.21200
C1790       C  0.45308314  0.59821031  0.63213945    -0.19800
C1791       C  0.43311338  0.61171544  0.62299570     0.19400
C1792       C  0.43734045  0.63526365  0.61252906     0.01600
C1793       C  0.41648359  0.64746897  0.60273091    -0.14500
C1794       C  0.39224820  0.63765264  0.60494069    -0.12200
C1795       C  0.38806522  0.61543573  0.61693308     0.01100
C1796       C  0.40876169  0.60215574  0.62512500    -0.24400
H1797       H  0.49496472  0.69951921  0.60277335     0.09100
H1798       H  0.45391761  0.68184650  0.59720626     0.12700
H1799       H  0.52004820  0.63139644  0.63401297     0.11400
H1800       H  0.49206499  0.59734699  0.63976687     0.12600
H1801       H  0.45001056  0.58010901  0.63986471     0.11600
H1802       H  0.41825758  0.66489016  0.59374500     0.08700
H1803       H  0.37661764  0.64812597  0.59814333     0.12000
H1804       H  0.40583718  0.58466952  0.63399785     0.13800
C1805       C  0.72223535  0.86626544  0.35635206    -0.01700
C1806       C  0.70109759  0.87055303  0.36988945    -0.09700
C1807       C  0.68047046  0.85426443  0.36904977    -0.18500
C1808       C  0.68049811  0.83324891  0.35449592     0.03900
C1809       C  0.70131814  0.83035059  0.33965785     0.18000
C1810       C  0.72176680  0.84666776  0.34078258    -0.20000
C1811       C  0.70225404  0.81050168  0.32439111    -0.21200
C1812       C  0.68357822  0.79255871  0.32427179    -0.19800
C1813       C  0.66365833  0.79385552  0.33959723     0.19400
C1814       C  0.66135894  0.81442431  0.35464082     0.01600
C1815       C  0.64071719  0.81441761  0.36979107    -0.14500
C1816       C  0.62410494  0.79407157  0.37082375    -0.12200
C1817       C  0.62755109  0.77330792  0.35676041     0.01100
C1818       C  0.64678219  0.77388467  0.34066002    -0.24400
H1819       H  0.70108617  0.88568303  0.38200403     0.09100
H1820       H  0.66510540  0.85812638  0.38039200     0.12700
H1821       H  0.73798365  0.84349893  0.33005152     0.11400
H1822       H  0.71793717  0.80843910  0.31286534     0.12600
H1823       H  0.68523764  0.77701829  0.31265034     0.11600
H1824       H  0.63755064  0.82940533  0.38160614     0.08700
H1825       H  0.60937959  0.79400313  0.38344622     0.12000
H1826       H  0.64938675  0.75799451  0.32954081     0.13800
C1827       C  0.50332321  0.66405096  0.37608180    -0.01700
C1828       C  0.48335605  0.67969583  0.38226944    -0.09700
C1829       C  0.45898635  0.67027246  0.38453945    -0.18500
C1830       C  0.45369871  0.64478152  0.38038729     0.03900
C1831       C  0.47421421  0.62881257  0.37517805     0.18000
C1832       C  0.49861491  0.63843676  0.37336900    -0.20000
C1833       C  0.47017557  0.60347427  0.37075007    -0.21200
C1834       C  0.44603030  0.59385550  0.37010548    -0.19800
C1835       C  0.42532115  0.60927746  0.37408272     0.19400
C1836       C  0.42880376  0.63475074  0.38009701     0.01600
C1837       C  0.40713087  0.64918799  0.38463589    -0.14500
C1838       C  0.38310992  0.63923767  0.38164640    -0.12200
C1839       C  0.37989166  0.61467006  0.37403245     0.01100
C1840       C  0.40111040  0.59956941  0.37109724    -0.24400
H1841       H  0.48636349  0.69952566  0.38455858     0.09100
H1842       H  0.44455476  0.68357821  0.38875983     0.12700
H1843       H  0.51382238  0.62600991  0.36869281     0.11400
H1844       H  0.48576713  0.59116090  0.36697394     0.12600
H1845       H  0.44350757  0.57434322  0.36583903     0.11600
H1846       H  0.40812797  0.66840529  0.38993261     0.08700
H1847       H  0.36701428  0.65124926  0.38424425     0.12000
H1848       H  0.39880988  0.58038825  0.36562357     0.13800
C1849       C  0.59416735  0.71002764  0.43628037    -0.01700
C1850       C  0.61707110  0.70571565  0.44717042    -0.09700
C1851       C  0.61871634  0.70582774  0.47067916    -0.18500
C1852       C  0.59735613  0.71023499  0.48429085     0.03900
C1853       C  0.57415837  0.71470044  0.47321968     0.18000
C1854       C  0.57277819  0.71458782  0.44951380    -0.20000
C1855       C  0.55242855  0.71921577  0.48586935    -0.21200
C1856       C  0.55321863  0.71952153  0.50931544    -0.19800
C1857       C  0.57575112  0.71528695  0.52073958     0.19400
C1858       C  0.59814974  0.71043769  0.50843336     0.01600
C1859       C  0.62031163  0.70600252  0.52087143    -0.14500
C1860       C  0.62024334  0.70659755  0.54444126    -0.12200
C1861       C  0.59819255  0.71171997  0.55651613     0.01100
C1862       C  0.57597783  0.71593438  0.54445660    -0.24400
H1863       H  0.63394861  0.70219461  0.43748047     0.09100
H1864       H  0.63702589  0.70239861  0.47765200     0.12700
H1865       H  0.55491038  0.71793808  0.44137884     0.11400
H1866       H  0.53467230  0.72259154  0.47756326     0.12600
H1867       H  0.53605641  0.72314379  0.51858999     0.11600
H1868       H  0.63805116  0.70200977  0.51291642     0.08700
H1869       H  0.63767775  0.70317601  0.55323783     0.12000
H1870       H  0.55870403  0.71966454  0.55354003     0.13800
C1871       C  0.79188399  0.37335466  0.63659569    -0.01700
C1872       C  0.79300168  0.35673012  0.65480462    -0.09700
C1873       C  0.81255761  0.33960152  0.65678500    -0.18500
C1874       C  0.83151001  0.33800260  0.64012536     0.03900
C1875       C  0.83132430  0.35605659  0.62246999     0.18000
C1876       C  0.81171687  0.37375559  0.62100063    -0.20000
C1877       C  0.84991768  0.35538278  0.60573284    -0.21200
C1878       C  0.86788449  0.33644660  0.60547170    -0.19800
C1879       C  0.86765023  0.31755069  0.62184820     0.19400
C1880       C  0.84975954  0.31837031  0.63970073     0.01600
C1881       C  0.84998129  0.29867108  0.65562210    -0.14500
C1882       C  0.86599011  0.27826558  0.65302477    -0.12200
C1883       C  0.88288712  0.27699407  0.63495892     0.01100
C1884       C  0.88432769  0.29715121  0.61986393    -0.24400
H1885       H  0.77799350  0.35630342  0.66716947     0.09100
H1886       H  0.81170754  0.32725437  0.67112219     0.12700
H1887       H  0.81089139  0.38650436  0.60679293     0.11400
H1888       H  0.85010850  0.36916688  0.59232958     0.12600
H1889       H  0.88152742  0.33609575  0.59189057     0.11600
H1890       H  0.83733825  0.29791250  0.66980493     0.08700
H1891       H  0.86471799  0.26297548  0.66496969     0.12000
H1892       H  0.89724129  0.29617042  0.60572811     0.13800
C1893       C  0.62722218  0.61742277  0.62000009    -0.01700
C1894       C  0.65131194  0.61435462  0.61080279    -0.09700
C1895       C  0.66168974  0.59055954  0.60785957    -0.18500
C1896       C  0.64824149  0.56884473  0.61401882     0.03900
C1897       C  0.62324410  0.57199910  0.62200063     0.18000
C1898       C  0.61308925  0.59603186  0.62498056    -0.20000
C1899       C  0.60874255  0.55116235  0.62767187    -0.21200
C1900       C  0.61882210  0.52727841  0.62650364    -0.19800
C1901       C  0.64379567  0.52362470  0.61998647     0.19400
C1902       C  0.65884530  0.54423386  0.61330514     0.01600
C1903       C  0.68409868  0.53932006  0.60724819    -0.14500
C1904       C  0.69429811  0.51525716  0.60916568    -0.12200
C1905       C  0.67960770  0.49522596  0.61677617     0.01100
C1906       C  0.65407871  0.49953276  0.62123138    -0.24400
H1907       H  0.66265638  0.63047771  0.60663039     0.09100
H1908       H  0.68046801  0.58978370  0.60111353     0.12700
H1909       H  0.59432385  0.59806652  0.63183141     0.11400
H1910       H  0.58959551  0.55338429  0.63350750     0.12600
H1911       H  0.60722022  0.51159466  0.63149135     0.11600
H1912       H  0.69672035  0.55387150  0.60183346     0.08700
H1913       H  0.71400783  0.51255681  0.60549384     0.12000
H1914       H  0.64232250  0.48427941  0.62699243     0.13800
C1915       C  0.50688349  0.32917784  0.61710678    -0.01700
C1916       C  0.51010595  0.35500801  0.61976935    -0.09700
C1917       C  0.53376310  0.36590408  0.61847561    -0.18500
C1918       C  0.55540169  0.35132704  0.61454109     0.03900
C1919       C  0.55210960  0.32527902  0.61085535     0.18000
C1920       C  0.52798809  0.31449923  0.61197485    -0.20000
C1921       C  0.57303329  0.31004164  0.60696559    -0.21200
C1922       C  0.59718058  0.31993508  0.60746278    -0.19800
C1923       C  0.60106732  0.34535683  0.61179048     0.19400
C1924       C  0.58019356  0.36152021  0.61496333     0.01600
C1925       C  0.58510510  0.38705303  0.61920359    -0.14500
C1926       C  0.60957129  0.39580710  0.62162678    -0.12200
C1927       C  0.63006889  0.37968202  0.61938935     0.01100
C1928       C  0.62571270  0.35458904  0.61375590    -0.24400
H1929       H  0.49426937  0.36695013  0.62362308     0.09100
H1930       H  0.53446768  0.38577487  0.62124665     0.12700
H1931       H  0.52585921  0.29449197  0.60995765     0.11400
H1932       H  0.57074810  0.29020129  0.60403092     0.12600
H1933       H  0.61296793  0.30749593  0.60490374     0.11600
H1934       H  0.57044867  0.40071486  0.62131942     0.08700
H1935       H  0.61247261  0.41530993  0.62569281     0.12000
H1936       H  0.64148476  0.34192750  0.61208551     0.13800
C1937       C  0.87447987  0.27150113  0.35674680    -0.01700
C1938       C  0.87800793  0.29184808  0.37121827    -0.09700
C1939       C  0.86135597  0.31217892  0.37089797    -0.18500
C1940       C  0.84068942  0.31269014  0.35591464     0.03900
C1941       C  0.83849865  0.29273843  0.34019370     0.18000
C1942       C  0.85519363  0.27250360  0.34082611    -0.20000
C1943       C  0.81895578  0.29242489  0.32453852    -0.21200
C1944       C  0.80059226  0.31075342  0.32491901    -0.19800
C1945       C  0.80123114  0.32977995  0.34104132     0.19400
C1946       C  0.82154893  0.33154297  0.35645108     0.01600
C1947       C  0.82106344  0.35142888  0.37225312    -0.14500
C1948       C  0.80059242  0.36792685  0.37338918    -0.12200
C1949       C  0.78010493  0.36503371  0.35890091     0.01100
C1950       C  0.78096436  0.34638306  0.34240155    -0.24400
H1951       H  0.89282174  0.29139590  0.38367474     0.09100
H1952       H  0.86465555  0.32682983  0.38297749     0.12700
H1953       H  0.85255684  0.25687071  0.32944597     0.11400
H1954       H  0.81743516  0.27745728  0.31232078     0.12600
H1955       H  0.78529503  0.30955098  0.31297313     0.11600
H1956       H  0.83581931  0.35417946  0.38437297     0.08700
H1957       H  0.80021801  0.38217036  0.38635523     0.12000
H1958       H  0.76520432  0.34419829  0.33104358     0.13800
C1959       C  0.67059325  0.48978495  0.37247078    -0.01700
C1960       C  0.68536297  0.50928611  0.38094131    -0.09700
C1961       C  0.67546672  0.53338223  0.38348919    -0.18500
C1962       C  0.65040885  0.53884751  0.37736925     0.03900
C1963       C  0.63518511  0.51867957  0.37000812     0.18000
C1964       C  0.64522784  0.49455579  0.36791274    -0.20000
C1965       C  0.61025591  0.52283239  0.36377129    -0.21200
C1966       C  0.60040275  0.54682465  0.36351262    -0.19800
C1967       C  0.61515119  0.56726565  0.36967400     0.19400
C1968       C  0.64013901  0.56360073  0.37734325     0.01600
C1969       C  0.65390373  0.58499836  0.38382063    -0.14500
C1970       C  0.64371927  0.60899216  0.38162649    -0.12200
C1971       C  0.61958064  0.61248829  0.37285019     0.01100
C1972       C  0.60523797  0.59144428  0.36744761    -0.24400
H1973       H  0.70493429  0.50617193  0.38483109     0.09100
H1974       H  0.68813554  0.54751974  0.38958121     0.12700
H1975       H  0.63340551  0.47964971  0.36163466     0.11400
H1976       H  0.59849657  0.50748346  0.35835167     0.12600
H1977       H  0.58125506  0.54947180  0.35792185     0.11600
H1978       H  0.67279284  0.58383297  0.39017246     0.08700
H1979       H  0.65521231  0.62493651  0.38594484     0.12000
H1980       H  0.58643804  0.59391731  0.36088000     0.13800
C1981       C  0.61790297  0.37644325  0.37095236    -0.01700
C1982       C  0.61351263  0.35431663  0.38305335    -0.09700
C1983       C  0.58943164  0.34396534  0.38438658    -0.18500
C1984       C  0.56881473  0.35548339  0.37358393     0.03900
C1985       C  0.57313397  0.37873370  0.36258949     0.18000
C1986       C  0.59738445  0.38887980  0.36137064    -0.20000
C1987       C  0.55338505  0.39138114  0.35213054    -0.21200
C1988       C  0.52957553  0.38100567  0.35151825    -0.19800
C1989       C  0.52495485  0.35756923  0.36110883     0.19400
C1990       C  0.54430544  0.34453603  0.37260362     0.01600
C1991       C  0.53841065  0.32077282  0.38175800    -0.14500
C1992       C  0.51468931  0.31001026  0.37861761    -0.12200
C1993       C  0.49602950  0.32263035  0.36648195     0.01100
C1994       C  0.50122240  0.34675950  0.35844014    -0.24400
H1995       H  0.62894582  0.34432471  0.39074120     0.09100
H1996       H  0.58763874  0.32666073  0.39354154     0.12700
H1997       H  0.60040548  0.40615249  0.35219496     0.11400
H1998       H  0.55648750  0.40922045  0.34393386     0.12600
H1999       H  0.51481799  0.39108408  0.34287048     0.11600
H2000       H  0.55195984  0.30975333  0.39083227     0.08700
H2001       H  0.51122637  0.29143266  0.38514877     0.12000
H2002       H  0.48696783  0.35696896  0.34924074     0.13800
C2003       C  0.71711148  0.40255712  0.43667292    -0.01700
C2004       C  0.71351108  0.38039897  0.44883568    -0.09700
C2005       C  0.71567398  0.37999968  0.47229847    -0.18500
C2006       C  0.72144940  0.40194355  0.48449810     0.03900
C2007       C  0.72476654  0.42445055  0.47212309     0.18000
C2008       C  0.72273827  0.42452974  0.44850993    -0.20000
C2009       C  0.72996733  0.44681254  0.48337432    -0.21200
C2010       C  0.73170948  0.44739511  0.50675804    -0.19800
C2011       C  0.72860995  0.42556909  0.51945168     0.19400
C2012       C  0.72374673  0.40245354  0.50850752     0.01600
C2013       C  0.72132439  0.38088663  0.52209727    -0.14500
C2014       C  0.72286016  0.38237472  0.54553448    -0.12200
C2015       C  0.72696425  0.40529572  0.55631977     0.01100
C2016       C  0.73014124  0.42679156  0.54309049    -0.24400
H2017       H  0.70916900  0.36313714  0.44018159     0.09100
H2018       H  0.71255020  0.36224632  0.48034465     0.12700
H2019       H  0.72547409  0.44185275  0.43934926     0.11400
H2020       H  0.73249449  0.46404076  0.47402905     0.12600
H2021       H  0.73549443  0.46505940  0.51497402     0.11600
H2022       H  0.71818118  0.36258231  0.51519392     0.08700
H2023       H  0.72060529  0.36538151  0.55525705     0.12000
H2024       H  0.73342861  0.44462854  0.55118724     0.13800
C2025       C  0.13154312  0.27601489  0.85658071    -0.01700
C2026       C  0.12662793  0.29785701  0.86879521    -0.09700
C2027       C  0.14291657  0.31841225  0.86726978    -0.18500
C2028       C  0.16459242  0.31759364  0.85335527     0.03900
C2029       C  0.16829280  0.29589913  0.83990860     0.18000
C2030       C  0.15191067  0.27557094  0.84165253    -0.20000
C2031       C  0.18896822  0.29403208  0.82546335    -0.21200
C2032       C  0.20695738  0.31266945  0.82493506    -0.19800
C2033       C  0.20476568  0.33358231  0.83890954     0.19400
C2034       C  0.18330457  0.33682944  0.85290922     0.01600
C2035       C  0.18225733  0.35859292  0.86650835    -0.14500
C2036       C  0.20244706  0.37541939  0.86724109    -0.12200
C2037       C  0.22412959  0.37106880  0.85443815     0.01100
C2038       C  0.22463890  0.35062820  0.83970313    -0.24400
H2039       H  0.11091617  0.29857887  0.88039744     0.09100
H2040       H  0.13851483  0.33436368  0.87762997     0.12700
H2041       H  0.15557783  0.25880024  0.83191426     0.11400
H2042       H  0.19165566  0.27765815  0.81498575     0.12600
H2043       H  0.22316157  0.31028503  0.81406366     0.11600
H2044       H  0.16649000  0.36260024  0.87733045     0.08700
H2045       H  0.20162375  0.39111278  0.87873479     0.12000
H2046       H  0.24122164  0.34731219  0.82948327     0.13800
C2047       C  0.27355949  0.53522541  0.69478610    -0.01700
C2048       C  0.26218101  0.51171248  0.69479317    -0.09700
C2049       C  0.25806806  0.49894898  0.71515448    -0.18500
C2050       C  0.26538099  0.50947898  0.73607678     0.03900
C2051       C  0.27541019  0.53408993  0.73580711     0.18000
C2052       C  0.27935259  0.54658928  0.71533271    -0.20000
C2053       C  0.28277220  0.54565948  0.75585505    -0.21200
C2054       C  0.28185154  0.53279901  0.77615753    -0.19800
C2055       C  0.27357915  0.50804936  0.77688515     0.19400
C2056       C  0.26446750  0.49617140  0.75705548     0.01600
C2057       C  0.25630028  0.47107489  0.75897899    -0.14500
C2058       C  0.25907750  0.45784499  0.77924772    -0.12200
C2059       C  0.26955986  0.46938223  0.79814614     0.01100
C2060       C  0.27589510  0.49464722  0.79710408    -0.24400
H2061       H  0.25780178  0.50260107  0.67897818     0.09100
H2062       H  0.24999464  0.48055205  0.71393350     0.12700
H2063       H  0.28820289  0.56483668  0.71526172     0.11400
H2064       H  0.29015136  0.56451676  0.75571892     0.12600
H2065       H  0.28856075  0.54197801  0.79126893     0.11600
H2066       H  0.24879561  0.46086247  0.74486383     0.08700
H2067       H  0.25441349  0.43816939  0.77977118     0.12000
H2068       H  0.28431756  0.50342369  0.81173481     0.13800
C2069       C  0.36940447  0.31327106  0.69315827    -0.01700
C2070       C  0.37769497  0.30314661  0.71356295    -0.09700
C2071       C  0.36520989  0.30844513  0.73367342    -0.18500
C2072       C  0.34453915  0.32497882  0.73403920     0.03900
C2073       C  0.33559597  0.33438905  0.71308362     0.18000
C2074       C  0.34759846  0.32780805  0.69280681    -0.20000
C2075       C  0.31605099  0.35184361  0.71266318    -0.21200
C2076       C  0.30685728  0.36196519  0.73265341    -0.19800
C2077       C  0.31637229  0.35414275  0.75348211     0.19400
C2078       C  0.33401196  0.33427957  0.75451658     0.01600
C2079       C  0.34147807  0.32569075  0.77604815    -0.14500
C2080       C  0.33424135  0.33837017  0.79554726    -0.12200
C2081       C  0.31946225  0.35987583  0.79411999     0.01100
C2082       C  0.30954729  0.36698445  0.77321254    -0.24400
H2083       H  0.39448746  0.29176084  0.71404329     0.09100
H2084       H  0.37324712  0.30065125  0.74878815     0.12700
H2085       H  0.34135756  0.33587082  0.67698613     0.11400
H2086       H  0.30894850  0.35888936  0.69676394     0.12600
H2087       H  0.29287385  0.37662682  0.73178451     0.11600
H2088       H  0.35345755  0.30966711  0.77831758     0.08700
H2089       H  0.34157316  0.33225993  0.81166730     0.12000
H2090       H  0.29742584  0.38322102  0.77220175     0.13800
C2091       C  0.21731534  0.36948231  0.13363162    -0.01700
C2092       C  0.19588573  0.37298453  0.12038463    -0.09700
C2093       C  0.17572444  0.35612091  0.12177196    -0.18500
C2094       C  0.17659790  0.33517890  0.13645430     0.03900
C2095       C  0.19775956  0.33293196  0.15085177     0.18000
C2096       C  0.21754620  0.35002275  0.14942722    -0.20000
C2097       C  0.19982434  0.31286833  0.16584205    -0.21200
C2098       C  0.18205543  0.29401732  0.16596879    -0.19800
C2099       C  0.16170048  0.29482574  0.15119577     0.19400
C2100       C  0.15808053  0.31573248  0.13671629     0.01600
C2101       C  0.13671893  0.31553885  0.12254482    -0.14500
C2102       C  0.12072545  0.29471950  0.12174609    -0.12200
C2103       C  0.12558856  0.27355153  0.13496134     0.01100
C2104       C  0.14560015  0.27419210  0.15017618    -0.24400
H2105       H  0.19529826  0.38791817  0.10806056     0.09100
H2106       H  0.16016285  0.35935935  0.11057246     0.12700
H2107       H  0.23395507  0.34740180  0.15995288     0.11400
H2108       H  0.21580930  0.31126607  0.17700237     0.12600
H2109       H  0.18469104  0.27827421  0.17723252     0.11600
H2110       H  0.13236237  0.33088421  0.11143007     0.08700
H2111       H  0.10528836  0.29467919  0.10992075     0.12000
H2112       H  0.14925598  0.25802773  0.16072958     0.13800
C2113       C  0.28652026  0.40731263  0.93365144    -0.01700
C2114       C  0.29028023  0.38467445  0.94503645    -0.09700
C2115       C  0.28923633  0.38344821  0.96853162    -0.18500
C2116       C  0.28446011  0.40498958  0.98164016     0.03900
C2117       C  0.28089347  0.42800235  0.97009102     0.18000
C2118       C  0.28181261  0.42894033  0.94637171    -0.20000
C2119       C  0.27655807  0.44997060  0.98229058    -0.21200
C2120       C  0.27581001  0.44962350  0.00575920    -0.19800
C2121       C  0.27916799  0.42726237  0.01763896     0.19400
C2122       C  0.28333756  0.40457296  0.00575465     0.01600
C2123       C  0.28624968  0.38247107  0.01855557    -0.14500
C2124       C  0.28564369  0.38296877  0.04208429    -0.12200
C2125       C  0.28198071  0.40540486  0.05379984     0.01100
C2126       C  0.27851859  0.42748580  0.04137985    -0.24400
H2127       H  0.29398055  0.36765654  0.93574101     0.09100
H2128       H  0.29241629  0.36532129  0.97588827     0.12700
H2129       H  0.27901476  0.44663499  0.93782891     0.11400
H2130       H  0.27386666  0.46759592  0.97361866     0.12600
H2131       H  0.27258460  0.46699115  0.01468706     0.11600
H2132       H  0.28905480  0.36442499  0.01093378     0.08700
H2133       H  0.28811531  0.36557157  0.05114304     0.12000
H2134       H  0.27559927  0.44499318  0.05018379     0.13800
C2135       C  0.26564237  0.46307867  0.19135543    -0.01700
C2136       C  0.25943325  0.45003478  0.21104267    -0.09700
C2137       C  0.25691460  0.46261432  0.23164707    -0.18500
C2138       C  0.26129789  0.48865331  0.23316246     0.03900
C2139       C  0.26631186  0.50183556  0.21275982     0.18000
C2140       C  0.26815404  0.48901945  0.19215493    -0.20000
C2141       C  0.27109963  0.52749976  0.21317794    -0.21200
C2142       C  0.27264566  0.54017495  0.23354914    -0.19800
C2143       C  0.26914518  0.52755922  0.25399478     0.19400
C2144       C  0.26247396  0.50184166  0.25417538     0.01600
C2145       C  0.25851697  0.49032149  0.27544467    -0.14500
C2146       C  0.26265287  0.50339985  0.29558304    -0.12200
C2147       C  0.27089435  0.52818218  0.29509703     0.01100
C2148       C  0.27344892  0.54031283  0.27429542    -0.24400
H2149       H  0.25784847  0.42986794  0.21070017     0.09100
H2150       H  0.25280583  0.45129496  0.24623797     0.12700
H2151       H  0.27343131  0.49900396  0.17692439     0.11400
H2152       H  0.27470240  0.53766014  0.19767628     0.12600
H2153       H  0.27737158  0.55985368  0.23333373     0.11600
H2154       H  0.25291017  0.47107527  0.27705094     0.08700
H2155       H  0.26072070  0.49371087  0.31155068     0.12000
H2156       H  0.27977192  0.55956124  0.27393190     0.13800
C2157       C  0.31174988  0.35648770  0.19349143    -0.01700
C2158       C  0.32269430  0.33277481  0.19310904    -0.09700
C2159       C  0.32776823  0.32020057  0.21325968    -0.18500
C2160       C  0.32198037  0.33115980  0.23439697     0.03900
C2161       C  0.30870822  0.35418380  0.23442944     0.18000
C2162       C  0.30381699  0.36658872  0.21409547    -0.20000
C2163       C  0.30165513  0.36542528  0.25478529    -0.21200
C2164       C  0.30911604  0.35523842  0.27524529    -0.19800
C2165       C  0.32413876  0.33383261  0.27575834     0.19400
C2166       C  0.33020736  0.32102320  0.25540232     0.01600
C2167       C  0.34601164  0.29986026  0.25684601    -0.14500
C2168       C  0.35738062  0.29341651  0.27719608    -0.12200
C2169       C  0.35248945  0.30712286  0.29675678     0.01100
C2170       C  0.33485182  0.32638366  0.29628963    -0.24400
H2171       H  0.32863965  0.32455396  0.17727322     0.09100
H2172       H  0.33691403  0.30233209  0.21174746     0.12700
H2173       H  0.29479392  0.38475761  0.21434823     0.11400
H2174       H  0.29112991  0.38275039  0.25486289     0.12600
H2175       H  0.30424092  0.36492855  0.29070098     0.11600
H2176       H  0.35129357  0.28894056  0.24233004     0.08700
H2177       H  0.37114180  0.27851950  0.27741977     0.12000
H2178       H  0.33145189  0.33718882  0.31147810     0.13800
C2179       C  0.62934188  0.21743578  0.85478590    -0.01700
C2180       C  0.62519520  0.19641756  0.86836928    -0.09700
C2181       C  0.64165615  0.17592463  0.86747835    -0.18500
C2182       C  0.66277687  0.17598427  0.85287155     0.03900
C2183       C  0.66550025  0.19660325  0.83791016     0.18000
C2184       C  0.64893034  0.21689514  0.83901714    -0.20000
C2185       C  0.68551025  0.19756046  0.82264597    -0.21200
C2186       C  0.70387327  0.17923068  0.82279152    -0.19800
C2187       C  0.70277044  0.15957188  0.83830018     0.19400
C2188       C  0.68192341  0.15712486  0.85317461     0.01600
C2189       C  0.68195728  0.13663043  0.86835386    -0.14500
C2190       C  0.70254390  0.12029093  0.86957731    -0.12200
C2191       C  0.72360362  0.12391652  0.85577308     0.01100
C2192       C  0.72312707  0.14307384  0.83969475    -0.24400
H2193       H  0.61010048  0.19643657  0.88063466     0.09100
H2194       H  0.63791056  0.16070962  0.87891768     0.12700
H2195       H  0.65201372  0.23300673  0.82824149     0.11400
H2196       H  0.68743221  0.21306288  0.81099399     0.12600
H2197       H  0.71956495  0.18096351  0.81123257     0.11600
H2198       H  0.66675388  0.13330798  0.87999146     0.08700
H2199       H  0.70253262  0.10559445  0.88214890     0.12000
H2200       H  0.73926448  0.14579474  0.82877948     0.13800
C2201       C  0.69611625  0.36146905  0.69640987    -0.01700
C2202       C  0.68474972  0.33798879  0.69576788    -0.09700
C2203       C  0.67851201  0.32571572  0.71575587    -0.18500
C2204       C  0.68348171  0.33682686  0.73693085     0.03900
C2205       C  0.69757832  0.35932705  0.73728873     0.18000
C2206       C  0.70362628  0.37146902  0.71709145    -0.20000
C2207       C  0.70422256  0.37036997  0.75778648    -0.21200
C2208       C  0.69554725  0.36053892  0.77802851    -0.19800
C2209       C  0.67954602  0.33986470  0.77810398     0.19400
C2210       C  0.67367915  0.32735190  0.75760073     0.01600
C2211       C  0.65646955  0.30729655  0.75845081    -0.14500
C2212       C  0.64405080  0.30141137  0.77844831    -0.12200
C2213       C  0.64922785  0.31452244  0.79822812     0.01100
C2214       C  0.66779472  0.33285685  0.79831352    -0.24400
H2215       H  0.67930068  0.32977894  0.67981384     0.09100
H2216       H  0.66918342  0.30799398  0.71406920     0.12700
H2217       H  0.71311873  0.38937156  0.71748320     0.11400
H2218       H  0.71541621  0.38724737  0.75812148     0.12600
H2219       H  0.70021639  0.37001659  0.79360939     0.11600
H2220       H  0.65094391  0.29691448  0.74373775     0.08700
H2221       H  0.62954349  0.28725464  0.77828520     0.12000
H2222       H  0.67134583  0.34324144  0.81368592     0.13800
C2223       C  0.54235431  0.26688697  0.79360866    -0.01700
C2224       C  0.51818339  0.25683125  0.79349453    -0.09700
C2225       C  0.50564519  0.25281778  0.77307282    -0.18500
C2226       C  0.51708734  0.25880315  0.75213540     0.03900
C2227       C  0.54247871  0.26687696  0.75246351     0.18000
C2228       C  0.55471333  0.27099313  0.77306604    -0.20000
C2229       C  0.55509920  0.27213967  0.73228356    -0.21200
C2230       C  0.54255888  0.27128632  0.71179141    -0.19800
C2231       C  0.51701291  0.26548071  0.71103117     0.19400
C2232       C  0.50399489  0.25845238  0.73106383     0.01600
C2233       C  0.47806518  0.25313893  0.72928063    -0.14500
C2234       C  0.46533369  0.25659499  0.70888796    -0.12200
C2235       C  0.47812465  0.26477148  0.68964601     0.01100
C2236       C  0.50405096  0.26832880  0.69058710    -0.24400
H2237       H  0.50840223  0.25349642  0.80925579     0.09100
H2238       H  0.48676021  0.24578604  0.77424017     0.12700
H2239       H  0.57357379  0.27857599  0.77317423     0.11400
H2240       H  0.57459415  0.27783758  0.73242260     0.12600
H2241       H  0.55263294  0.27634702  0.69655299     0.11600
H2242       H  0.46686592  0.24758907  0.74359252     0.08700
H2243       H  0.44518023  0.25417509  0.70844548     0.12000
H2244       H  0.51382608  0.27509737  0.67571172     0.13800
C2245       C  0.50787439  0.33087826  0.86959904    -0.01700
C2246       C  0.50504409  0.35670489  0.86640567    -0.09700
C2247       C  0.48162974  0.36812765  0.86810568    -0.18500
C2248       C  0.45991790  0.35404508  0.87297720     0.03900
C2249       C  0.46300765  0.32821727  0.87791632     0.18000
C2250       C  0.48682462  0.31687983  0.87616950    -0.20000
C2251       C  0.44215679  0.31372354  0.88381401    -0.21200
C2252       C  0.41821229  0.32410462  0.88412781    -0.19800
C2253       C  0.41441511  0.34910507  0.87805128     0.19400
C2254       C  0.43523256  0.36450169  0.87248442     0.01600
C2255       C  0.43031720  0.38933624  0.86555950    -0.14500
C2256       C  0.40578371  0.39809956  0.86336525    -0.12200
C2257       C  0.38533044  0.38275617  0.86853176     0.01100
C2258       C  0.38981507  0.35848785  0.87651772    -0.24400
H2259       H  0.52096773  0.36821011  0.86184447     0.09100
H2260       H  0.48113502  0.38796018  0.86517087     0.12700
H2261       H  0.48871961  0.29696263  0.87895800     0.11400
H2262       H  0.44432400  0.29410361  0.88786219     0.12600
H2263       H  0.40244838  0.31225610  0.88843194     0.11600
H2264       H  0.44493867  0.40216697  0.86083626     0.08700
H2265       H  0.40278202  0.41690896  0.85717310     0.12000
H2266       H  0.37407140  0.34636436  0.88024786     0.13800
C2267       C  0.71841721  0.11882327  0.13481115    -0.01700
C2268       C  0.69738082  0.11491769  0.12115684    -0.09700
C2269       C  0.67701508  0.13159042  0.12181865    -0.18500
C2270       C  0.67722818  0.15273783  0.13620867     0.03900
C2271       C  0.69794368  0.15539323  0.15108279     0.18000
C2272       C  0.71801118  0.13851551  0.15032649    -0.20000
C2273       C  0.69927123  0.17563953  0.16589455    -0.21200
C2274       C  0.68124889  0.19427163  0.16536191    -0.19800
C2275       C  0.66137318  0.19306158  0.15008783     0.19400
C2276       C  0.65846380  0.17198080  0.13575133     0.01600
C2277       C  0.63754129  0.17181405  0.12102118    -0.14500
C2278       C  0.62126991  0.19244702  0.11963015    -0.12200
C2279       C  0.62544057  0.21374865  0.13280477     0.01100
C2280       C  0.64502859  0.21346363  0.14847633    -0.24400
H2281       H  0.69726583  0.09976953  0.10906183     0.09100
H2282       H  0.66180873  0.12801540  0.11032361     0.12700
H2283       H  0.73408192  0.14143942  0.16118952     0.11400
H2284       H  0.71487496  0.17755315  0.17743803     0.12600
H2285       H  0.68331617  0.21016489  0.17651854     0.11600
H2286       H  0.63375132  0.15632052  0.10993798     0.08700
H2287       H  0.60618041  0.19222843  0.10745011     0.12000
H2288       H  0.64813860  0.22974854  0.15898939     0.13800
C2289       C  0.50163858  0.32441469  0.11737559    -0.01700
C2290       C  0.48149916  0.30931169  0.11073989    -0.09700
C2291       C  0.45744245  0.31937126  0.10798299    -0.18500
C2292       C  0.45263235  0.34500205  0.11200866     0.03900
C2293       C  0.47333347  0.36041526  0.11773387     0.18000
C2294       C  0.49745631  0.35014771  0.12003172    -0.20000
C2295       C  0.46968486  0.38581678  0.12224601    -0.21200
C2296       C  0.44569784  0.39596970  0.12264340    -0.19800
C2297       C  0.42477205  0.38111124  0.11806264     0.19400
C2298       C  0.42797427  0.35568069  0.11171321     0.01600
C2299       C  0.40623982  0.34193485  0.10612130    -0.14500
C2300       C  0.38233697  0.35244332  0.10836619    -0.12200
C2301       C  0.37920596  0.37688821  0.11638860     0.01100
C2302       C  0.40060025  0.39133391  0.12056516    -0.24400
H2303       H  0.48407744  0.28939846  0.10856231     0.09100
H2304       H  0.44280781  0.30641338  0.10357155     0.12700
H2305       H  0.51283906  0.36215228  0.12499290     0.11400
H2306       H  0.48542420  0.39773120  0.12638194     0.12600
H2307       H  0.44345797  0.41547861  0.12707535     0.11600
H2308       H  0.40707804  0.32285993  0.10036700     0.08700
H2309       H  0.36615685  0.34091739  0.10480382     0.12000
H2310       H  0.39842387  0.41041321  0.12638259     0.13800
C2311       C  0.59325620  0.28101601  0.93457000    -0.01700
C2312       C  0.61506045  0.28733422  0.94642357    -0.09700
C2313       C  0.61542487  0.28749943  0.96992587    -0.18500
C2314       C  0.59384122  0.28134051  0.98261503     0.03900
C2315       C  0.57186129  0.27442745  0.97061899     0.18000
C2316       C  0.57172433  0.27439098  0.94685639    -0.20000
C2317       C  0.55014036  0.26764561  0.98242610    -0.21200
C2318       C  0.54975995  0.26758403  0.00590858    -0.19800
C2319       C  0.57101020  0.27454806  0.01820143     0.19400
C2320       C  0.59331543  0.28171064  0.00673699     0.01600
C2321       C  0.61406251  0.28908547  0.01994198    -0.14500
C2322       C  0.61285908  0.28894288  0.04345780    -0.12200
C2323       C  0.59100910  0.28146555  0.05476712     0.01100
C2324       C  0.57007694  0.27440657  0.04193393    -0.24400
H2325       H  0.63207854  0.29234430  0.93750337     0.09100
H2326       H  0.63299458  0.29249325  0.97761710     0.12700
H2327       H  0.55475883  0.26930978  0.93794887     0.11400
H2328       H  0.53332666  0.26228887  0.97343386     0.12600
H2329       H  0.53266330  0.26214420  0.01452364     0.11600
H2330       H  0.63154255  0.29520102  0.01265073     0.08700
H2331       H  0.62927242  0.29467378  0.05282021     0.12000
H2332       H  0.55295486  0.26874134  0.05040342     0.13800
C2333       C  0.68524704  0.35088153  0.29815106    -0.01700
C2334       C  0.69755907  0.35719957  0.27809364    -0.09700
C2335       C  0.69180066  0.34504995  0.25798607    -0.18500
C2336       C  0.67261395  0.32688185  0.25722228     0.03900
C2337       C  0.66087657  0.31986514  0.27788308     0.18000
C2338       C  0.66791097  0.33130027  0.29823457    -0.20000
C2339       C  0.64076098  0.30309753  0.27783251    -0.21200
C2340       C  0.63050058  0.29503468  0.25756219    -0.19800
C2341       C  0.64079700  0.30276919  0.23695749     0.19400
C2342       C  0.66305484  0.31730226  0.23651600     0.01600
C2343       C  0.67383159  0.32288025  0.21525486    -0.14500
C2344       C  0.66128777  0.31706050  0.19530862    -0.12200
C2345       C  0.63777208  0.30558955  0.19603329     0.01100
C2346       C  0.62820443  0.29734863  0.21679715    -0.24400
H2347       H  0.71099019  0.37236860  0.27782159     0.09100
H2348       H  0.70141138  0.35158839  0.24309203     0.12700
H2349       H  0.65810311  0.32671706  0.31375620     0.11400
H2350       H  0.63186939  0.29748770  0.29350476     0.12600
H2351       H  0.61389644  0.28339251  0.25799691     0.11600
H2352       H  0.69156572  0.33233383  0.21352941     0.08700
H2353       H  0.66926399  0.32300618  0.17935154     0.12000
H2354       H  0.61032371  0.28772832  0.21732220     0.13800
C2355       C  0.46137407  0.25653533  0.29263049    -0.01700
C2356       C  0.44833778  0.25493406  0.27223876    -0.09700
C2357       C  0.46112839  0.25099942  0.25192964    -0.18500
C2358       C  0.48762321  0.24973682  0.25135122     0.03900
C2359       C  0.50061271  0.25043623  0.27229873     0.18000
C2360       C  0.48734347  0.25299641  0.29270607    -0.20000
C2361       C  0.52683786  0.25063785  0.27266290    -0.21200
C2362       C  0.54047669  0.25206744  0.25267959    -0.19800
C2363       C  0.52824334  0.25245420  0.23182916     0.19400
C2364       C  0.50173456  0.24991854  0.23077409     0.01600
C2365       C  0.49051217  0.24909792  0.20915261    -0.14500
C2366       C  0.50473519  0.25310466  0.18960681    -0.12200
C2367       C  0.53041916  0.25788682  0.19105925     0.01100
C2368       C  0.54222735  0.25673099  0.21207680    -0.24400
H2369       H  0.42825189  0.25793049  0.27191509     0.09100
H2370       H  0.44989091  0.25074923  0.23684215     0.12700
H2371       H  0.49747776  0.25482140  0.30846615     0.11400
H2372       H  0.53684989  0.25108735  0.28854735     0.12600
H2373       H  0.56070819  0.25358515  0.25356448     0.11600
H2374       H  0.47069807  0.24612091  0.20686116     0.08700
H2375       H  0.49537919  0.25398656  0.17342353     0.12000
H2376       H  0.56217671  0.26046579  0.21313758     0.13800
C2377       C  0.78918762  0.62185945  0.85525105    -0.01700
C2378       C  0.78816792  0.63998826  0.83827343    -0.09700
C2379       C  0.80785103  0.65666002  0.83495579    -0.18500
C2380       C  0.82913716  0.65626749  0.84909569     0.03900
C2381       C  0.83091383  0.63676399  0.86536273     0.18000
C2382       C  0.81109836  0.61949839  0.86809259    -0.20000
C2383       C  0.85177112  0.63557304  0.87963628    -0.21200
C2384       C  0.87001817  0.65421627  0.87915498    -0.19800
C2385       C  0.86789975  0.67455963  0.86438783     0.19400
C2386       C  0.84784674  0.67540109  0.84861486     0.01600
C2387       C  0.84650164  0.69621613  0.83398534    -0.14500
C2388       C  0.86284152  0.71630370  0.83633544    -0.12200
C2389       C  0.88152966  0.71624565  0.85286864     0.01100
C2390       C  0.88478562  0.69479118  0.86616310    -0.24400
H2391       H  0.77152146  0.64183689  0.82795906     0.09100
H2392       H  0.80527231  0.67026491  0.82177124     0.12700
H2393       H  0.81194863  0.60546689  0.88127423     0.11400
H2394       H  0.85349743  0.62062824  0.89188042     0.12600
H2395       H  0.88538316  0.65320928  0.89103804     0.11600
H2396       H  0.83238874  0.69811368  0.82114744     0.08700
H2397       H  0.86023457  0.73252192  0.82563384     0.12000
H2398       H  0.89919692  0.69462680  0.87902119     0.13800
C2399       C  0.69324636  0.64099212  0.80016942    -0.01700
C2400       C  0.70661931  0.63527643  0.78053650    -0.09700
C2401       C  0.70093521  0.64709229  0.76020053    -0.18500
C2402       C  0.68082401  0.66424492  0.75880354     0.03900
C2403       C  0.66792407  0.67055464  0.77909810     0.18000
C2404       C  0.67473998  0.65943353  0.79964839    -0.20000
C2405       C  0.64704158  0.68635419  0.77848566    -0.21200
C2406       C  0.63742135  0.69440087  0.75797167    -0.19800
C2407       C  0.64897090  0.68749916  0.73768215     0.19400
C2408       C  0.67167682  0.67361475  0.73782260     0.01600
C2409       C  0.68337635  0.66856186  0.71682258    -0.14500
C2410       C  0.67155975  0.67462246  0.69651794    -0.12200
C2411       C  0.64789026  0.68579641  0.69665479     0.01100
C2412       C  0.63720728  0.69318204  0.71720116    -0.24400
H2413       H  0.72078499  0.62076067  0.78075165     0.09100
H2414       H  0.71148220  0.64113422  0.74562063     0.12700
H2415       H  0.66405467  0.66336243  0.81485102     0.11400
H2416       H  0.63722991  0.69135202  0.79388114     0.12600
H2417       H  0.62039768  0.70545240  0.75794210     0.11600
H2418       H  0.70129695  0.65934026  0.71555175     0.08700
H2419       H  0.68020393  0.66911335  0.68072103     0.12000
H2420       H  0.61905466  0.70233082  0.71724477     0.13800
C2421       C  0.74104690  0.53569677  0.79466742    -0.01700
C2422       C  0.75401726  0.51297464  0.79395552    -0.09700
C2423       C  0.75794152  0.50067491  0.77331102    -0.18500
C2424       C  0.74879490  0.51083632  0.75280096     0.03900
C2425       C  0.73766246  0.53496345  0.75363373     0.18000
C2426       C  0.73408377  0.54709081  0.77434902    -0.20000
C2427       C  0.72862596  0.54625488  0.73398213    -0.21200
C2428       C  0.72858451  0.53335254  0.71369325    -0.19800
C2429       C  0.73768531  0.50889148  0.71254578     0.19400
C2430       C  0.74882034  0.49751475  0.73179710     0.01600
C2431       C  0.75799747  0.47280037  0.72939226    -0.14500
C2432       C  0.75447591  0.45943011  0.70928317    -0.12200
C2433       C  0.74201812  0.47037193  0.69103305     0.01100
C2434       C  0.73437950  0.49528429  0.69254099    -0.24400
H2435       H  0.75970087  0.50393957  0.80948195     0.09100
H2436       H  0.76718309  0.48278759  0.77402845     0.12700
H2437       H  0.72439750  0.56491448  0.77481460     0.11400
H2438       H  0.72049938  0.56480773  0.73450293     0.12600
H2439       H  0.72045342  0.54222619  0.69898513     0.11600
H2440       H  0.76704135  0.46301615  0.74303050     0.08700
H2441       H  0.76030820  0.44007290  0.70841142     0.12000
H2442       H  0.72458940  0.50368007  0.67841144     0.13800
C2443       C  0.67781477  0.49987024  0.87279745    -0.01700
C2444       C  0.69148916  0.48033677  0.88266205    -0.09700
C2445       C  0.68070201  0.45663775  0.88553917    -0.18500
C2446       C  0.65589784  0.45166337  0.87829587     0.03900
C2447       C  0.64183548  0.47192184  0.86938436     0.18000
C2448       C  0.65267272  0.49560009  0.86707797    -0.20000
C2449       C  0.61731120  0.46829169  0.86179716    -0.21200
C2450       C  0.60676814  0.44463945  0.86171934    -0.19800
C2451       C  0.62038895  0.42405056  0.86944658     0.19400
C2452       C  0.64484227  0.42726908  0.87853451     0.01600
C2453       C  0.65738722  0.40575289  0.88656680    -0.14500
C2454       C  0.64679153  0.38197547  0.88420269    -0.12200
C2455       C  0.62340107  0.37884088  0.87380236     0.01100
C2456       C  0.60999799  0.40011287  0.86720416    -0.24400
H2457       H  0.71085809  0.48309786  0.88745027     0.09100
H2458       H  0.69250753  0.44237329  0.89274848     0.12700
H2459       H  0.64164841  0.51054239  0.85971738     0.11400
H2460       H  0.60646795  0.48375174  0.85514187     0.12600
H2461       H  0.58803637  0.44234252  0.85500898     0.11600
H2462       H  0.67569752  0.40664143  0.89417401     0.08700
H2463       H  0.65754082  0.36588064  0.88957483     0.12000
H2464       H  0.59175416  0.39798299  0.85941595     0.13800
C2465       C  0.78628932  0.61660096  0.12592967    -0.01700
C2466       C  0.80390505  0.61603786  0.14338593    -0.09700
C2467       C  0.82466350  0.63220551  0.14301213    -0.18500
C2468       C  0.82833836  0.64928771  0.12498753     0.03900
C2469       C  0.81125323  0.64822154  0.10662006     0.18000
C2470       C  0.79056572  0.63216255  0.10734596    -0.20000
C2471       C  0.81419601  0.66394343  0.08796129    -0.21200
C2472       C  0.83292712  0.68183055  0.08761504    -0.19800
C2473       C  0.84895942  0.68463648  0.10604521     0.19400
C2474       C  0.84748550  0.66810235  0.12480858     0.01600
C2475       C  0.86433958  0.67214643  0.14293588    -0.14500
C2476       C  0.88057755  0.69283155  0.14302307    -0.12200
C2477       C  0.88051455  0.70977372  0.12502577     0.01100
C2478       C  0.86545599  0.70492325  0.10627799    -0.24400
H2479       H  0.80095502  0.60400727  0.15785218     0.09100
H2480       H  0.83714188  0.63141585  0.15726801     0.12700
H2481       H  0.77711853  0.63235889  0.09363878     0.11400
H2482       H  0.80142994  0.66290458  0.07379565     0.12600
H2483       H  0.83421656  0.69424575  0.07320058     0.11600
H2484       H  0.86458767  0.66028276  0.15763792     0.08700
H2485       H  0.89211003  0.69634540  0.15769011     0.12000
H2486       H  0.86557459  0.71796559  0.09224576     0.13800
C2487       C  0.67290335  0.49653571  0.12469119    -0.01700
C2488       C  0.64721118  0.49416615  0.12924668    -0.09700
C2489       C  0.63513141  0.47121737  0.12745088    -0.18500
C2490       C  0.64844417  0.44948463  0.12121922     0.03900
C2491       C  0.67416800  0.45212811  0.11522001     0.18000
C2492       C  0.68613981  0.47555589  0.11691975    -0.20000
C2493       C  0.68791490  0.43121209  0.10824280    -0.21200
C2494       C  0.67686212  0.40765446  0.10767136    -0.19800
C2495       C  0.65189209  0.40430448  0.11443209     0.19400
C2496       C  0.63728746  0.42519355  0.12125423     0.01600
C2497       C  0.61245231  0.42071559  0.12870193    -0.14500
C2498       C  0.60283399  0.39651329  0.12994825    -0.12200
C2499       C  0.61732653  0.37591551  0.12346454     0.01100
C2500       C  0.64170864  0.38004897  0.11521692    -0.24400
H2501       H  0.63635917  0.51015140  0.13478427     0.09100
H2502       H  0.61542700  0.47110543  0.13138624     0.12700
H2503       H  0.70598371  0.47717055  0.11322478     0.11400
H2504       H  0.70745478  0.43302181  0.10347642     0.12600
H2505       H  0.68813629  0.39182629  0.10244806     0.11600
H2506       H  0.60019564  0.43539519  0.13440338     0.08700
H2507       H  0.58401600  0.39388505  0.13644727     0.12000
H2508       H  0.65327339  0.36423415  0.11047762     0.13800
C2509       C  0.71805023  0.58092974  0.05720860    -0.01700
C2510       C  0.73225388  0.56271168  0.04595220    -0.09700
C2511       C  0.73404733  0.56253542  0.02239002    -0.18500
C2512       C  0.72161344  0.58071016  0.00915668     0.03900
C2513       C  0.70724878  0.59914917  0.02064886     0.18000
C2514       C  0.70559629  0.59908381  0.04431965    -0.20000
C2515       C  0.69459841  0.61764763  0.00847783    -0.21200
C2516       C  0.69580456  0.61824253  0.98506952    -0.19800
C2517       C  0.70970879  0.60037049  0.97320348     0.19400
C2518       C  0.72284445  0.58131219  0.98500210     0.01600
C2519       C  0.73650629  0.56371650  0.97205163    -0.14500
C2520       C  0.73695927  0.56497970  0.94845623    -0.12200
C2521       C  0.72399984  0.58384846  0.93691981     0.01100
C2522       C  0.71044420  0.60148450  0.94952734    -0.24400
H2523       H  0.74222070  0.54852716  0.05539314     0.09100
H2524       H  0.74536791  0.54797477  0.01505958     0.12700
H2525       H  0.69464332  0.61340338  0.05271556     0.11400
H2526       H  0.68364946  0.63177393  0.01713209     0.12600
H2527       H  0.68574211  0.63280828  0.97616849     0.11600
H2528       H  0.74697381  0.54870578  0.97963276     0.08700
H2529       H  0.74760586  0.55110142  0.93921561     0.12000
H2530       H  0.70016533  0.61610170  0.94088842     0.13800
C2531       C  0.69280568  0.63954183  0.19346597    -0.01700
C2532       C  0.67621183  0.65968115  0.19250380    -0.09700
C2533       C  0.66738312  0.67067792  0.21235655    -0.18500
C2534       C  0.67492516  0.66154285  0.23370830     0.03900
C2535       C  0.69429330  0.64332500  0.23434709     0.18000
C2536       C  0.70280949  0.63227819  0.21427276    -0.20000
C2537       C  0.70373455  0.63502696  0.25505018    -0.21200
C2538       C  0.69323262  0.64328860  0.27521529    -0.19800
C2539       C  0.67238690  0.65918498  0.27507742     0.19400
C2540       C  0.66300427  0.66867747  0.25431064     0.01600
C2541       C  0.64085481  0.68318673  0.25490862    -0.14500
C2542       C  0.62798223  0.68708313  0.27512545    -0.12200
C2543       C  0.63719630  0.67749266  0.29544056     0.01100
C2544       C  0.65988687  0.66434325  0.29545516    -0.24400
H2545       H  0.66841901  0.66552400  0.17647856     0.09100
H2546       H  0.65398262  0.68561338  0.21050159     0.12700
H2547       H  0.71580767  0.61669648  0.21492532     0.11400
H2548       H  0.71885445  0.62150746  0.25564023     0.12600
H2549       H  0.70055286  0.63607200  0.29096730     0.11600
H2550       H  0.63225472  0.69059460  0.23989198     0.08700
H2551       H  0.61045013  0.69731320  0.27483636     0.12000
H2552       H  0.66683874  0.65657391  0.31114609     0.13800
C2553       C  0.73837474  0.52950064  0.19846246    -0.01700
C2554       C  0.73988118  0.54206916  0.21910971    -0.09700
C2555       C  0.74391088  0.52895810  0.23919551    -0.18500
C2556       C  0.74536833  0.50256772  0.23933111     0.03900
C2557       C  0.74462026  0.49000605  0.21818105     0.18000
C2558       C  0.74197611  0.50360366  0.19797988    -0.20000
C2559       C  0.74450475  0.46387473  0.21743163    -0.21200
C2560       C  0.74301593  0.44994948  0.23722426    -0.19800
C2561       C  0.74256654  0.46178607  0.25826829     0.19400
C2562       C  0.74532872  0.48815111  0.25969203     0.01600
C2563       C  0.74650083  0.49895392  0.28146514    -0.14500
C2564       C  0.74232239  0.48454187  0.30082062    -0.12200
C2565       C  0.73692358  0.45908681  0.29903385     0.01100
C2566       C  0.73797647  0.44760466  0.27784226    -0.24400
H2567       H  0.73688505  0.56206990  0.21979952     0.09100
H2568       H  0.74407713  0.53985462  0.25448033     0.12700
H2569       H  0.74024218  0.49377991  0.18205888     0.11400
H2570       H  0.74408474  0.45416408  0.20139824     0.12600
H2571       H  0.74146935  0.42981424  0.23603660     0.11600
H2572       H  0.74991218  0.51858891  0.28401167     0.08700
H2573       H  0.74174016  0.49362738  0.31714335     0.12000
H2574       H  0.73398833  0.42779902  0.27651101     0.13800
C2575       C  0.38025648  0.77663849  0.85525278    -0.01700
C2576       C  0.38519142  0.79867227  0.86717590    -0.09700
C2577       C  0.36866740  0.81911093  0.86583326    -0.18500
C2578       C  0.34659703  0.81789828  0.85257481     0.03900
C2579       C  0.34277468  0.79599263  0.83948147     0.18000
C2580       C  0.35960735  0.77599608  0.84072392    -0.20000
C2581       C  0.32144354  0.79344924  0.82604886    -0.21200
C2582       C  0.30294334  0.81158920  0.82625712    -0.19800
C2583       C  0.30542646  0.83282200  0.83974735     0.19400
C2584       C  0.32755120  0.83685344  0.85257329     0.01600
C2585       C  0.32894629  0.85911366  0.86548008    -0.14500
C2586       C  0.30847015  0.87562725  0.86678054    -0.12200
C2587       C  0.28617979  0.87036903  0.85529786     0.01100
C2588       C  0.28525078  0.84945029  0.84119960    -0.24400
H2589       H  0.40109117  0.79964141  0.87846140     0.09100
H2590       H  0.37307631  0.83518772  0.87599193     0.12700
H2591       H  0.35586246  0.75917640  0.83111441     0.11400
H2592       H  0.31859760  0.77685040  0.81592020     0.12600
H2593       H  0.28620917  0.80862230  0.81628514     0.11600
H2594       H  0.34528685  0.86380401  0.87523791     0.08700
H2595       H  0.30961246  0.89179528  0.87769641     0.12000
H2596       H  0.26817409  0.84551502  0.83196078     0.13800
C2597       C  0.47665196  0.72832474  0.79987625    -0.01700
C2598       C  0.46446060  0.73881285  0.78126342    -0.09700
C2599       C  0.47743851  0.74276945  0.76093842    -0.18500
C2600       C  0.50302080  0.73600799  0.75870383     0.03900
C2601       C  0.51550441  0.72696318  0.77829416     0.18000
C2602       C  0.50226291  0.72316962  0.79850041    -0.20000
C2603       C  0.54086068  0.72045266  0.77735901    -0.21200
C2604       C  0.55382605  0.72117465  0.75705591    -0.19800
C2605       C  0.54170264  0.72822857  0.73715810     0.19400
C2606       C  0.51636122  0.73649869  0.73764484     0.01600
C2607       C  0.50524043  0.74337327  0.71681540    -0.14500
C2608       C  0.51817228  0.74024010  0.69631535    -0.12200
C2609       C  0.54249016  0.73041056  0.69607949     0.01100
C2610       C  0.55441712  0.72546960  0.71658876    -0.24400
H2611       H  0.44456215  0.74277225  0.78209180     0.09100
H2612       H  0.46679193  0.75028144  0.74706417     0.12700
H2613       H  0.51162257  0.71493851  0.81294512     0.11400
H2614       H  0.55052533  0.71389981  0.79230250     0.12600
H2615       H  0.57321644  0.71513662  0.75675659     0.11600
H2616       H  0.48623203  0.75011376  0.71577025     0.08700
H2617       H  0.50858695  0.74399326  0.68058400     0.12000
H2618       H  0.57328320  0.71788389  0.71640727     0.13800
C2619       C  0.32210429  0.64069321  0.69245575    -0.01700
C2620       C  0.30931223  0.63453970  0.71230510    -0.09700
C2621       C  0.31519305  0.64625451  0.73257379    -0.18500
C2622       C  0.33497194  0.66375258  0.73368933     0.03900
C2623       C  0.34722560  0.67060433  0.71322806     0.18000
C2624       C  0.34008621  0.65965356  0.69271288    -0.20000
C2625       C  0.36792613  0.68663430  0.71364156    -0.21200
C2626       C  0.37818948  0.69408437  0.73409198    -0.19800
C2627       C  0.36734336  0.68646176  0.75449906     0.19400
C2628       C  0.34458092  0.67272565  0.75456581     0.01600
C2629       C  0.33330184  0.66726982  0.77563509    -0.14500
C2630       C  0.34574126  0.67240401  0.79575930    -0.12200
C2631       C  0.36962529  0.68307463  0.79539527     0.01100
C2632       C  0.37980235  0.69121965  0.77483966    -0.24400
H2633       H  0.29545214  0.61975103  0.71230032     0.09100
H2634       H  0.30520096  0.63983109  0.74729940     0.12700
H2635       H  0.35029296  0.66400747  0.67734622     0.11400
H2636       H  0.37722085  0.69209994  0.69811797     0.12600
H2637       H  0.39519750  0.70514170  0.73395107     0.11600
H2638       H  0.31520162  0.65848109  0.77707896     0.08700
H2639       H  0.33728459  0.66665746  0.81157469     0.12000
H2640       H  0.39795639  0.70033558  0.77462436     0.13800
C2641       C  0.62654930  0.61385344  0.87491531    -0.01700
C2642       C  0.62289484  0.63745092  0.88469085    -0.09700
C2643       C  0.59883502  0.64766314  0.88688476    -0.18500
C2644       C  0.57746160  0.63452459  0.87933321     0.03900
C2645       C  0.58114116  0.60993355  0.87084201     0.18000
C2646       C  0.60541633  0.59993121  0.86869437    -0.20000
C2647       C  0.56064356  0.59573714  0.86374615    -0.21200
C2648       C  0.53662207  0.60573408  0.86406158    -0.19800
C2649       C  0.53250822  0.63032129  0.87116869     0.19400
C2650       C  0.55273061  0.64506407  0.87918045     0.01600
C2651       C  0.54738542  0.66997734  0.88571294    -0.14500
C2652       C  0.52327342  0.68010096  0.88324091    -0.12200
C2653       C  0.50361393  0.66567262  0.87458339     0.01100
C2654       C  0.50835668  0.64051137  0.86933623    -0.24400
H2655       H  0.63880645  0.64863246  0.88977888     0.09100
H2656       H  0.59761617  0.66608434  0.89409337     0.12700
H2657       H  0.60788987  0.58154970  0.86135470     0.11400
H2658       H  0.56326494  0.57690662  0.85747087     0.12600
H2659       H  0.52123522  0.59437950  0.85802571     0.11600
H2660       H  0.56162460  0.68235893  0.89203046     0.08700
H2661       H  0.52022876  0.69953303  0.88749942     0.12000
H2662       H  0.49343581  0.62898434  0.86264810     0.13800
C2663       C  0.38785139  0.61580954  0.87337367    -0.01700
C2664       C  0.40362821  0.59507945  0.87106251    -0.09700
C2665       C  0.39440779  0.57085852  0.87390891    -0.18500
C2666       C  0.36870671  0.56650055  0.87847301     0.03900
C2667       C  0.35293692  0.58763102  0.88163555     0.18000
C2668       C  0.36271404  0.61196287  0.87956373    -0.20000
C2669       C  0.32724879  0.58434952  0.88562928    -0.21200
C2670       C  0.31658388  0.56062070  0.88511038    -0.19800
C2671       C  0.33139917  0.53950502  0.88099142     0.19400
C2672       C  0.35782603  0.54206402  0.87859776     0.01600
C2673       C  0.37206558  0.52010929  0.87539136    -0.14500
C2674       C  0.36043401  0.49702965  0.87250050    -0.12200
C2675       C  0.33422290  0.49478687  0.87292864     0.01100
C2676       C  0.31986050  0.51599866  0.87820487    -0.24400
H2677       H  0.42315585  0.59759641  0.86654012     0.09100
H2678       H  0.40768347  0.55594307  0.87142562     0.12700
H2679       H  0.35031697  0.62791232  0.88128353     0.11400
H2680       H  0.31512754  0.60034452  0.88824704     0.12600
H2681       H  0.29649167  0.55885197  0.88732101     0.11600
H2682       H  0.39223296  0.52020170  0.87445462     0.08700
H2683       H  0.37214687  0.48092107  0.86911684     0.12000
H2684       H  0.29960872  0.51452981  0.87892151     0.13800
C2685       C  0.37760427  0.77615809  0.13581335    -0.01700
C2686       C  0.35993123  0.77641363  0.15330823    -0.09700
C2687       C  0.34268074  0.79580093  0.15540992    -0.18500
C2688       C  0.34207966  0.81557490  0.13961563     0.03900
C2689       C  0.36093125  0.81605417  0.12254975     0.18000
C2690       C  0.37869648  0.79650926  0.12092730    -0.20000
C2691       C  0.36105574  0.83533435  0.10654749    -0.21200
C2692       C  0.34225296  0.85345324  0.10647803    -0.19800
C2693       C  0.32274523  0.85274522  0.12235293     0.19400
C2694       C  0.32270630  0.83408822  0.13947603     0.01600
C2695       C  0.30252478  0.83397787  0.15501763    -0.14500
C2696       C  0.28241016  0.85036982  0.15261426    -0.12200
C2697       C  0.28193355  0.86794058  0.13515703     0.01100
C2698       C  0.30259303  0.86975266  0.12056204    -0.24400
H2699       H  0.35879208  0.76084623  0.16497708     0.09100
H2700       H  0.32949528  0.79418517  0.16912028     0.12700
H2701       H  0.39212184  0.79623629  0.10715715     0.11400
H2702       H  0.37539967  0.83600061  0.09357454     0.12600
H2703       H  0.34254682  0.86767467  0.09345538     0.11600
H2704       H  0.30116993  0.82085715  0.16874271     0.08700
H2705       H  0.26667083  0.84882886  0.16414159     0.12000
H2706       H  0.30217873  0.88323033  0.10689811     0.13800
C2707       C  0.49840188  0.66125559  0.12198301    -0.01700
C2708       C  0.50126328  0.63558063  0.12621363    -0.09700
C2709       C  0.52468648  0.62401781  0.12488272    -0.18500
C2710       C  0.54641842  0.63776242  0.11931102     0.03900
C2711       C  0.54333890  0.66343098  0.11366029     0.18000
C2712       C  0.51952524  0.67489020  0.11500412    -0.20000
C2713       C  0.56421334  0.67772327  0.10746676    -0.21200
C2714       C  0.58817119  0.66739958  0.10765010    -0.19800
C2715       C  0.59196625  0.64257085  0.11427508     0.19400
C2716       C  0.57113503  0.62722401  0.11986627     0.01600
C2717       C  0.57610578  0.60234452  0.12667566    -0.14500
C2718       C  0.60069952  0.59359513  0.12900021    -0.12200
C2719       C  0.62123605  0.60908840  0.12428507     0.01100
C2720       C  0.61659394  0.63334466  0.11621774    -0.24400
H2721       H  0.48536463  0.62432968  0.13132632     0.09100
H2722       H  0.52520444  0.60437599  0.12877911     0.12700
H2723       H  0.51768482  0.69468508  0.11154197     0.11400
H2724       H  0.56206707  0.69720538  0.10289506     0.12600
H2725       H  0.60394954  0.67916935  0.10320694     0.11600
H2726       H  0.56143116  0.58939300  0.13102758     0.08700
H2727       H  0.60361976  0.57472818  0.13505669     0.12000
H2728       H  0.63223271  0.64559621  0.11248041     0.13800
C2729       C  0.38144883  0.61468072  0.11868730    -0.01700
C2730       C  0.35759290  0.61168508  0.10918143    -0.09700
C2731       C  0.34698911  0.58793321  0.10676824    -0.18500
C2732       C  0.36005945  0.56627260  0.11373030     0.03900
C2733       C  0.38490296  0.56937481  0.12195273     0.18000
C2734       C  0.39520902  0.59333206  0.12447714    -0.20000
C2735       C  0.39912260  0.54859215  0.12828073    -0.21200
C2736       C  0.38893952  0.52478447  0.12738800    -0.19800
C2737       C  0.36411195  0.52119454  0.12058352     0.19400
C2738       C  0.34927618  0.54176611  0.11345741     0.01600
C2739       C  0.32407089  0.53693335  0.10734543    -0.14500
C2740       C  0.31381352  0.51290367  0.10930979    -0.12200
C2741       C  0.32840583  0.49286208  0.11702991     0.01100
C2742       C  0.35379433  0.49717193  0.12186587    -0.24400
H2743       H  0.34657381  0.62785547  0.10446758     0.09100
H2744       H  0.32839720  0.58714413  0.09975385     0.12700
H2745       H  0.41380928  0.59538535  0.13156649     0.11400
H2746       H  0.41814618  0.55079857  0.13431933     0.12600
H2747       H  0.40034637  0.50912048  0.13276647     0.11600
H2748       H  0.31156916  0.55150159  0.10180197     0.08700
H2749       H  0.29417396  0.51020934  0.10545730     0.12000
H2750       H  0.36544599  0.48194254  0.12781877     0.13800
C2751       C  0.41421616  0.71317841  0.93579573    -0.01700
C2752       C  0.39305075  0.70410780  0.94721371    -0.09700
C2753       C  0.39199913  0.70385860  0.97074431    -0.18500
C2754       C  0.41222734  0.71277776  0.98384341     0.03900
C2755       C  0.43354484  0.72228300  0.97224817     0.18000
C2756       C  0.43437530  0.72236571  0.94850668    -0.20000
C2757       C  0.45398733  0.73152193  0.98441868    -0.21200
C2758       C  0.45386448  0.73127713  0.00790975    -0.19800
C2759       C  0.43331203  0.72174155  0.01986593     0.19400
C2760       C  0.41213683  0.71246595  0.00798890     0.01600
C2761       C  0.39184758  0.70311109  0.02080883    -0.14500
C2762       C  0.39261843  0.70281203  0.04431326    -0.12200
C2763       C  0.41354137  0.71177323  0.05608334     0.01100
C2764       C  0.43385240  0.72131796  0.04365792    -0.24400
H2765       H  0.37717318  0.69688817  0.93793173     0.09100
H2766       H  0.37510599  0.69646524  0.97809676     0.12700
H2767       H  0.45083482  0.72955869  0.93993708     0.11400
H2768       H  0.47026771  0.73889338  0.97570096     0.12600
H2769       H  0.47004260  0.73847147  0.01678991     0.11600
H2770       H  0.37509740  0.69578257  0.01325267     0.08700
H2771       H  0.37658417  0.69533537  0.05330414     0.12000
H2772       H  0.45011864  0.72842377  0.05247125     0.13800
C2773       C  0.52870535  0.72497930  0.30219779    -0.01700
C2774       C  0.53887377  0.73922634  0.28461433    -0.09700
C2775       C  0.52554058  0.74255460  0.26441789    -0.18500
C2776       C  0.50165841  0.73147708  0.26131738     0.03900
C2777       C  0.49098873  0.71843159  0.27996041     0.18000
C2778       C  0.50450274  0.71537289  0.30001465    -0.20000
C2779       C  0.46741594  0.70726056  0.27816123    -0.21200
C2780       C  0.45468851  0.70745104  0.25781580    -0.19800
C2781       C  0.46525978  0.71874878  0.23875725     0.19400
C2782       C  0.48850677  0.73160674  0.24021736     0.01600
C2783       C  0.49797428  0.74279146  0.22019822    -0.14500
C2784       C  0.48580885  0.73954631  0.19936793    -0.12200
C2785       C  0.46390154  0.72525466  0.19802439     0.01100
C2786       C  0.45325056  0.71594714  0.21795252    -0.24400
H2787       H  0.55771802  0.74657303  0.28599153     0.09100
H2788       H  0.53473551  0.75302664  0.25124872     0.12700
H2789       H  0.49670283  0.70424776  0.31364690     0.11400
H2790       H  0.45912935  0.69754739  0.29239745     0.12600
H2791       H  0.43683069  0.69787100  0.25677604     0.11600
H2792       H  0.51521785  0.75326292  0.21999454     0.08700
H2793       H  0.49432300  0.74695125  0.18415892     0.12000
H2794       H  0.43608106  0.70513855  0.21703584     0.13800
C2795       C  0.31324483  0.63768109  0.29679323    -0.01700
C2796       C  0.30055299  0.63122778  0.27706004    -0.09700
C2797       C  0.30557466  0.64366015  0.25684806    -0.18500
C2798       C  0.32444477  0.66216354  0.25569231     0.03900
C2799       C  0.33656419  0.66920031  0.27609860     0.18000
C2800       C  0.33027034  0.65747118  0.29652550    -0.20000
C2801       C  0.35635661  0.68632013  0.27571220    -0.21200
C2802       C  0.36595344  0.69481884  0.25529499    -0.19800
C2803       C  0.35537311  0.68704543  0.23490857     0.19400
C2804       C  0.33342447  0.67204415  0.23481754     0.01600
C2805       C  0.32256207  0.66618848  0.21369526    -0.14500
C2806       C  0.33495999  0.67201459  0.19356034    -0.12200
C2807       C  0.35828085  0.68383944  0.19406720     0.01100
C2808       C  0.36763763  0.69264817  0.21461101    -0.24400
H2809       H  0.28741535  0.61580245  0.27711505     0.09100
H2810       H  0.29568089  0.63714440  0.24217197     0.12700
H2811       H  0.34036875  0.66207737  0.31182780     0.11400
H2812       H  0.36553191  0.69189143  0.29120171     0.12600
H2813       H  0.38237752  0.70672393  0.25542456     0.11600
H2814       H  0.30505182  0.65631315  0.21224781     0.08700
H2815       H  0.32719638  0.66563842  0.17770781     0.12000
H2816       H  0.38538981  0.70251425  0.21488288     0.13800
loop_ 
_geom_bond_atom_site_label_1 
_geom_bond_atom_site_label_2 
_geom_bond_distance 
_geom_bond_site_symmetry_2 
_ccdc_geom_bond_type 
Fe1          O17   2.078       .  S
Fe1           O7   2.037       .  S
Fe1          O14   2.062       .  S
Fe1           O6   2.063       .  S
Fe1          O12   1.975       .  S
Fe2           O5   2.046       .  S
Fe2           O9   2.045       .  S
Fe2          O13   2.069       .  S
Fe2          O18   2.047       .  S
Fe2          O12   1.959       .  S
Fe3          O21   2.092       .  S
Fe3           O8   2.110       .  S
Fe3          O15   2.107       .  S
Fe3           O4   2.084       .  S
Fe3          O12   1.989       .  S
O4           C11   1.275       .  A
O5           C19   1.265       .  A
O6           C11   1.272       .  A
O7           C10   1.264       .  A
O8           C20   1.279       .  A
O9           C22   1.266       .  A
C10          O15   1.275       .  A
C10        C2685   1.479       .  S
C11        C2763   1.489       .  S
O13          C16   1.268       .  A
O14          C16   1.266       .  A
C16        C2729   1.484       .  S
O17          C22   1.270       .  A
O18          C20   1.269       .  A
C19          O21   1.272       .  A
C19        C2785   1.481       .  S
C20        C2707   1.494       .  S
C22        C2807   1.468       .  S
Fe23         O39   2.058       .  S
Fe23         O29   2.077       .  S
Fe23         O36   2.081       .  S
Fe23         O28   2.038       .  S
Fe23         O34   1.961       .  S
Fe24         O27   2.042       .  S
Fe24         O31   2.083       .  S
Fe24         O35   2.048       .  S
Fe24         O40   2.073       .  S
Fe24         O34   1.951       .  S
Fe25         O43   2.113       .  S
Fe25         O30   2.074       .  S
Fe25         O37   2.066       .  S
Fe25         O26   2.104       .  S
Fe25         O34   1.970       .  S
O26          C33   1.274       .  A
O27          C41   1.268       .  A
O28          C33   1.264       .  A
O29          C32   1.275       .  A
O30          C42   1.268       .  A
O31          C44   1.271       .  A
C32          O37   1.273       .  A
C32        C2751   1.486       .  S
C33        C2575   1.484       .  S
O35          C38   1.268       .  A
O36          C38   1.273       .  A
C38        C2631   1.470       .  S
O39          C44   1.265       .  A
O40          C42   1.268       .  A
C41          O43   1.280       .  A
C41        C2653   1.491       .  S
C42        C2597   1.471       .  S
C44        C2663   1.484       .  S
Fe45         O61   2.076       .  S
Fe45         O51   2.058       .  S
Fe45         O58   2.072       .  S
Fe45         O50   2.060       .  S
Fe45         O56   1.976       .  S
Fe46         O49   2.056       .  S
Fe46         O53   2.051       .  S
Fe46         O57   2.071       .  S
Fe46         O62   2.053       .  S
Fe46         O56   1.962       .  S
Fe47         O65   2.086       .  S
Fe47         O52   2.089       .  S
Fe47         O59   2.089       .  S
Fe47         O48   2.086       .  S
Fe47         O56   1.984       .  S
O48          C55   1.275       .  A
O49          C63   1.266       .  A
O50          C55   1.271       .  A
O51          C54   1.268       .  A
O52          C64   1.274       .  A
O53          C66   1.267       .  A
C54          O59   1.272       .  A
C54        C2465   1.479       .  S
C55        C2509   1.488       .  S
O57          C60   1.268       .  A
O58          C60   1.268       .  A
C60        C2719   1.491       .  S
O61          C66   1.271       .  A
O62          C64   1.269       .  A
C63          O65   1.271       .  A
C63        C2553   1.476       .  S
C64        C2487   1.485       .  S
C66        C2531   1.464       .  S
Fe67         O83   2.067       .  S
Fe67         O73   2.067       .  S
Fe67         O80   2.074       .  S
Fe67         O72   2.049       .  S
Fe67         O78   1.980       .  S
Fe68         O71   2.048       .  S
Fe68         O75   2.071       .  S
Fe68         O79   2.047       .  S
Fe68         O84   2.050       .  S
Fe68         O78   1.965       .  S
Fe69         O87   2.093       .  S
Fe69         O74   2.087       .  S
Fe69         O81   2.076       .  S
Fe69         O70   2.092       .  S
Fe69         O78   1.998       .  S
O70          C77   1.271       .  A
O71          C85   1.268       .  A
O72          C77   1.266       .  A
O73          C76   1.271       .  A
O74          C86   1.271       .  A
O75          C88   1.269       .  A
C76          O81   1.272       .  A
C76        C2521   1.488       .  S
C77        C2377   1.478       .  S
O79          C82   1.265       .  A
O80          C82   1.269       .  A
C82        C2399   1.463       .  S
O83          C88   1.268       .  A
O84          C86   1.266       .  A
C85          O87   1.274       .  A
C85        C2443   1.489       .  S
C86        C2421   1.480       .  S
C88        C2641   1.489       .  S
Fe89        O105   2.080       .  S
Fe89         O95   2.043       .  S
Fe89        O102   2.061       .  S
Fe89         O94   2.076       .  S
Fe89        O100   1.971       .  S
Fe90         O93   2.060       .  S
Fe90         O97   2.052       .  S
Fe90        O101   2.075       .  S
Fe90        O106   2.058       .  S
Fe90        O100   1.960       .  S
Fe91        O109   2.073       .  S
Fe91         O96   2.098       .  S
Fe91        O103   2.101       .  S
Fe91         O92   2.065       .  S
Fe91        O100   1.982       .  S
O92          C99   1.271       .  A
O93         C107   1.266       .  A
O94          C99   1.274       .  A
O95          C98   1.265       .  A
O96         C108   1.277       .  A
O97         C110   1.268       .  A
C98         O103   1.274       .  A
C98        C2279   1.483       .  S
C99        C2323   1.487       .  S
O101        C104   1.270       .  A
O102        C104   1.266       .  A
C104       C2499   1.486       .  S
O105        C110   1.272       .  A
O106        C108   1.271       .  A
C107        O109   1.268       .  A
C107       C2367   1.469       .  S
C108       C2289   1.491       .  S
C110       C2345   1.472       .  S
Fe111       O127   2.062       .  S
Fe111       O117   2.062       .  S
Fe111       O124   2.069       .  S
Fe111       O116   2.045       .  S
Fe111       O122   1.974       .  S
Fe112       O115   2.047       .  S
Fe112       O119   2.074       .  S
Fe112       O123   2.041       .  S
Fe112       O128   2.058       .  S
Fe112       O122   1.960       .  S
Fe113       O131   2.099       .  S
Fe113       O118   2.079       .  S
Fe113       O125   2.073       .  S
Fe113       O114   2.101       .  S
Fe113       O122   1.987       .  S
O114        C121   1.274       .  A
O115        C129   1.268       .  A
O116        C121   1.266       .  A
O117        C120   1.270       .  A
O118        C130   1.270       .  A
O119        C132   1.271       .  A
C120        O125   1.272       .  A
C120       C2311   1.485       .  S
C121       C2179   1.481       .  S
O123        C126   1.264       .  A
O124        C126   1.267       .  A
C126       C2213   1.458       .  S
O127        C132   1.268       .  A
O128        C130   1.267       .  A
C129        O131   1.276       .  A
C129       C2245   1.489       .  S
C130       C2223   1.475       .  S
C132       C2455   1.485       .  S
Fe133       O149   2.084       .  S
Fe133       O139   2.040       .  S
Fe133       O146   2.060       .  S
Fe133       O138   2.077       .  S
Fe133       O144   1.966       .  S
Fe134       O137   2.066       .  S
Fe134       O141   2.045       .  S
Fe134       O145   2.080       .  S
Fe134       O150   2.043       .  S
Fe134       O144   1.955       .  S
Fe135       O153   2.075       .  S
Fe135       O140   2.107       .  S
Fe135       O147   2.104       .  S
Fe135       O136   2.066       .  S
Fe135       O144   1.979       .  S
O136        C143   1.272       .  A
O137        C151   1.268       .  A
O138        C143   1.275       .  A
O139        C142   1.264       .  A
O140        C152   1.278       .  A
O141        C154   1.267       .  A
C142        O147   1.274       .  A
C142       C2091   1.483       .  S
C143       C2125   1.486       .  S
O145        C148   1.270       .  A
O146        C148   1.266       .  A
C148       C2301   1.486       .  S
O149        C154   1.273       .  A
O150        C152   1.268       .  A
C151        O153   1.269       .  A
C151       C2135   1.469       .  S
C152       C2741   1.490       .  S
C154       C2157   1.471       .  S
Fe155       O171   2.060       .  S
Fe155       O161   2.075       .  S
Fe155       O168   2.082       .  S
Fe155       O160   2.041       .  S
Fe155       O166   1.960       .  S
Fe156       O159   2.047       .  S
Fe156       O163   2.076       .  S
Fe156       O167   2.056       .  S
Fe156       O172   2.061       .  S
Fe156       O166   1.949       .  S
Fe157       O175   2.112       .  S
Fe157       O162   2.076       .  S
Fe157       O169   2.064       .  S
Fe157       O158   2.105       .  S
Fe157       O166   1.970       .  S
O158        C165   1.276       .  A
O159        C173   1.271       .  A
O160        C165   1.266       .  A
O161        C164   1.273       .  A
O162        C174   1.267       .  A
O163        C176   1.269       .  A
C164        O169   1.271       .  A
C164       C2113   1.485       .  S
C165       C2037   1.483       .  S
O167        C170   1.269       .  A
O168        C170   1.273       .  A
C170       C2081   1.471       .  S
O171        C176   1.266       .  A
O172        C174   1.266       .  A
C173        O175   1.280       .  A
C173       C2675   1.490       .  S
C174       C2059   1.468       .  S
C176       C2257   1.481       .  S
Fe177       O193   2.084       .  S
Fe177       O183   2.049       .  S
Fe177       O190   2.065       .  S
Fe177       O182   2.076       .  S
Fe177       O188   1.972       .  S
Fe178       O181   2.066       .  S
Fe178       O185   2.047       .  S
Fe178       O189   2.079       .  S
Fe178       O194   2.055       .  S
Fe178       O188   1.957       .  S
Fe179       O197   2.072       .  S
Fe179       O184   2.097       .  S
Fe179       O191   2.099       .  S
Fe179       O180   2.055       .  S
Fe179       O188   1.979       .  S
O180        C187   1.268       .  A
O181        C195   1.267       .  A
O182        C187   1.272       .  A
O183        C186   1.268       .  A
O184        C196   1.277       .  A
O185        C198   1.267       .  A
C186        O191   1.275       .  A
C186       C1949   1.480       .  S
C187       C2003   1.483       .  S
O189        C192   1.271       .  A
O190        C192   1.268       .  A
C192       C1981   1.489       .  S
O193        C198   1.271       .  A
O194        C196   1.271       .  A
C195        O197   1.268       .  A
C195       C2565   1.472       .  S
C196       C1959   1.490       .  S
C198       C2333   1.468       .  S
Fe199       O215   2.064       .  S
Fe199       O205   2.066       .  S
Fe199       O212   2.069       .  S
Fe199       O204   2.044       .  S
Fe199       O210   1.967       .  S
Fe200       O203   2.045       .  S
Fe200       O207   2.075       .  S
Fe200       O211   2.047       .  S
Fe200       O216   2.070       .  S
Fe200       O210   1.951       .  S
Fe201       O219   2.110       .  S
Fe201       O206   2.080       .  S
Fe201       O213   2.067       .  S
Fe201       O202   2.104       .  S
Fe201       O210   1.972       .  S
O202        C209   1.274       .  A
O203        C217   1.268       .  A
O204        C209   1.265       .  A
O205        C208   1.272       .  A
O206        C218   1.270       .  A
O207        C220   1.270       .  A
C208        O213   1.273       .  A
C208       C2015   1.482       .  S
C209       C1871   1.480       .  S
O211        C214   1.269       .  A
O212        C214   1.270       .  A
C214       C2201   1.464       .  S
O215        C220   1.267       .  A
O216        C218   1.268       .  A
C217        O219   1.279       .  A
C217       C1905   1.491       .  S
C218       C2433   1.474       .  S
C220       C1927   1.483       .  S
Fe221       O237   2.086       .  S
Fe221       O227   2.045       .  S
Fe221       O234   2.061       .  S
Fe221       O226   2.081       .  S
Fe221       O232   1.956       .  S
Fe222       O225   2.068       .  S
Fe222       O229   2.055       .  S
Fe222       O233   2.077       .  S
Fe222       O238   2.051       .  S
Fe222       O232   1.948       .  S
Fe223       O241   2.081       .  S
Fe223       O228   2.105       .  S
Fe223       O235   2.100       .  S
Fe223       O224   2.067       .  S
Fe223       O232   1.966       .  S
O224        C231   1.273       .  A
O225        C239   1.268       .  A
O226        C231   1.275       .  A
O227        C230   1.266       .  A
O228        C240   1.278       .  A
O229        C242   1.270       .  A
C230        O235   1.273       .  A
C230       C1817   1.482       .  S
C231       C1849   1.487       .  S
O233        C236   1.270       .  A
O234        C236   1.267       .  A
C236       C1971   1.484       .  S
O237        C242   1.274       .  A
O238        C240   1.270       .  A
C239        O241   1.270       .  A
C239       C2773   1.473       .  S
C240       C1827   1.489       .  S
C242       C2543   1.473       .  S
Fe243       O259   2.065       .  S
Fe243       O249   2.073       .  S
Fe243       O256   2.080       .  S
Fe243       O248   2.050       .  S
Fe243       O254   1.981       .  S
Fe244       O247   2.048       .  S
Fe244       O251   2.073       .  S
Fe244       O255   2.046       .  S
Fe244       O260   2.053       .  S
Fe244       O254   1.967       .  S
Fe245       O263   2.094       .  S
Fe245       O250   2.087       .  S
Fe245       O257   2.070       .  S
Fe245       O246   2.101       .  S
Fe245       O254   1.993       .  S
O246        C253   1.272       .  A
O247        C261   1.267       .  A
O248        C253   1.265       .  A
O249        C252   1.273       .  A
O250        C262   1.272       .  A
O251        C264   1.269       .  A
C252        O257   1.273       .  A
C252       C1861   1.486       .  S
C253       C1761   1.483       .  S
O255        C258   1.266       .  A
O256        C258   1.271       .  A
C258       C2411   1.470       .  S
O259        C264   1.267       .  A
O260        C262   1.267       .  A
C261        O263   1.274       .  A
C261       C1783   1.490       .  S
C262       C2609   1.477       .  S
C264       C1893   1.489       .  S
Fe265       O281   2.070       .  S
Fe265       O271   2.047       .  S
Fe265       O278   2.066       .  S
Fe265       O270   2.060       .  S
Fe265       O276   1.978       .  S
Fe266       O269   2.057       .  S
Fe266       O273   2.052       .  S
Fe266       O277   2.069       .  S
Fe266       O282   2.053       .  S
Fe266       O276   1.966       .  S
Fe267       O285   2.083       .  S
Fe267       O272   2.086       .  S
Fe267       O279   2.097       .  S
Fe267       O268   2.077       .  S
Fe267       O276   1.991       .  S
O268        C275   1.272       .  A
O269        C283   1.267       .  A
O270        C275   1.270       .  A
O271        C274   1.266       .  A
O272        C284   1.274       .  A
O273        C286   1.266       .  A
C274        O279   1.273       .  A
C274       C1695   1.478       .  S
C275       C1739   1.487       .  S
O277        C280   1.270       .  A
O278        C280   1.268       .  A
C280       C1839   1.484       .  S
O281        C286   1.267       .  A
O282        C284   1.268       .  A
C283        O285   1.272       .  A
C283       C2147   1.475       .  S
C284       C1717   1.487       .  S
C286       C2795   1.464       .  S
Fe287       O303   2.063       .  S
Fe287       O293   2.075       .  S
Fe287       O300   2.086       .  S
Fe287       O292   2.046       .  S
Fe287       O298   1.965       .  S
Fe288       O291   2.044       .  S
Fe288       O295   2.071       .  S
Fe288       O299   2.042       .  S
Fe288       O304   2.058       .  S
Fe288       O298   1.948       .  S
Fe289       O307   2.106       .  S
Fe289       O294   2.074       .  S
Fe289       O301   2.063       .  S
Fe289       O290   2.110       .  S
Fe289       O298   1.975       .  S
O290        C297   1.276       .  A
O291        C305   1.268       .  A
O292        C297   1.267       .  A
O293        C296   1.273       .  A
O294        C306   1.269       .  A
O295        C308   1.270       .  A
C296        O301   1.270       .  A
C296       C1751   1.485       .  S
C297       C1663   1.483       .  S
O299        C302   1.266       .  A
O300        C302   1.272       .  A
C302       C2619   1.465       .  S
O303        C308   1.267       .  A
O304        C306   1.267       .  A
C305        O307   1.278       .  A
C305       C1673   1.488       .  S
C306       C2047   1.471       .  S
C308       C1795   1.484       .  S
Fe309       O325   2.070       .  S
Fe309       O315   2.056       .  S
Fe309       O322   2.067       .  S
Fe309       O314   2.066       .  S
Fe309       O320   1.984       .  S
Fe310       O313   2.051       .  S
Fe310       O317   2.047       .  S
Fe310       O321   2.068       .  S
Fe310       O326   2.053       .  S
Fe310       O320   1.968       .  S
Fe311       O329   2.080       .  S
Fe311       O316   2.090       .  S
Fe311       O323   2.090       .  S
Fe311       O312   2.065       .  S
Fe311       O320   1.992       .  S
O312        C319   1.270       .  A
O313        C327   1.265       .  A
O314        C319   1.269       .  A
O315        C318   1.268       .  A
O316        C328   1.274       .  A
O317        C330   1.265       .  A
C318        O323   1.273       .  A
C318       C1607   1.477       .  S
C319       C1629   1.485       .  S
O321        C324   1.269       .  A
O322        C324   1.269       .  A
C324       C1729   1.485       .  S
O325        C330   1.267       .  A
O326        C328   1.269       .  A
C327        O329   1.269       .  A
C327       C2355   1.471       .  S
C328       C1993   1.490       .  S
C330       C2169   1.462       .  S
Fe331       O347   2.063       .  S
Fe331       O337   2.075       .  S
Fe331       O344   2.080       .  S
Fe331       O336   2.048       .  S
Fe331       O342   1.969       .  S
Fe332       O335   2.045       .  S
Fe332       O339   2.074       .  S
Fe332       O343   2.050       .  S
Fe332       O348   2.065       .  S
Fe332       O342   1.953       .  S
Fe333       O351   2.106       .  S
Fe333       O338   2.074       .  S
Fe333       O345   2.064       .  S
Fe333       O334   2.098       .  S
Fe333       O342   1.977       .  S
O334        C341   1.273       .  A
O335        C349   1.269       .  A
O336        C341   1.267       .  A
O337        C340   1.273       .  A
O338        C350   1.268       .  A
O339        C352   1.269       .  A
C340        O345   1.272       .  A
C340       C1641   1.485       .  S
C341       C1585   1.479       .  S
O343        C346   1.268       .  A
O344        C346   1.271       .  A
C346       C2069   1.469       .  S
O347        C352   1.267       .  A
O348        C350   1.267       .  A
C349        O351   1.278       .  A
C349       C1915   1.489       .  S
C350       C2235   1.469       .  S
C352       C1685   1.482       .  S
Fe353       O369   2.075       .  S
Fe353       O359   2.053       .  S
Fe353       O366   2.066       .  S
Fe353       O358   2.070       .  S
Fe353       O364   1.965       .  S
Fe354       O357   2.068       .  S
Fe354       O361   2.049       .  S
Fe354       O365   2.073       .  S
Fe354       O370   2.046       .  S
Fe354       O364   1.950       .  S
Fe355       O373   2.071       .  S
Fe355       O360   2.106       .  S
Fe355       O367   2.099       .  S
Fe355       O356   2.058       .  S
Fe355       O364   1.971       .  S
O356        C363   1.272       .  A
O357        C371   1.268       .  A
O358        C363   1.272       .  A
O359        C362   1.267       .  A
O360        C372   1.277       .  A
O361        C374   1.268       .  A
C362        O367   1.273       .  A
C362       C1883   1.481       .  S
C363       C1519   1.480       .  S
O365        C368   1.270       .  A
O366        C368   1.268       .  A
C368       C1497   1.484       .  S
O369        C374   1.271       .  A
O370        C372   1.268       .  A
C371        O373   1.269       .  A
C371       C1541   1.468       .  S
C372       C1475   1.487   1_655  S
C374       C1563   1.466       .  S
Fe375       O391   2.066       .  S
Fe375       O381   2.074       .  S
Fe375       O388   2.079       .  S
Fe375       O380   2.050       .  S
Fe375       O386   1.976       .  S
Fe376       O379   2.045       .  S
Fe376       O383   2.060       .  S
Fe376       O387   2.038       .  S
Fe376       O392   2.052       .  S
Fe376       O386   1.958       .  S
Fe377       O395   2.101       .  S
Fe377       O382   2.075       .  S
Fe377       O389   2.051       .  S
Fe377       O378   2.094       .  S
Fe377       O386   1.981       .  S
O378        C385   1.272       .  A
O379        C393   1.267       .  A
O380        C385   1.266       .  A
O381        C384   1.273       .  A
O382        C394   1.268       .  A
O383        C396   1.267       .  A
C384        O389   1.270       .  A
C384       C1531   1.480       .  S
C385       C1937   1.479       .  S
O387        C390   1.266       .  A
O388        C390   1.271       .  A
C390       C1399   1.465       .  S
O391        C396   1.267       .  A
O392        C394   1.266       .  A
C393        O395   1.276       .  A
C393       C1443   1.490       .  S
C394       C1409   1.473       .  S
C396       C1465   1.483       .  S
Fe397       O413   2.072       .  S
Fe397       O403   2.046       .  S
Fe397       O410   2.066       .  S
Fe397       O402   2.068       .  S
Fe397       O408   1.981       .  S
Fe398       O401   2.044       .  S
Fe398       O405   2.050       .  S
Fe398       O409   2.061       .  S
Fe398       O414   2.048       .  S
Fe398       O408   1.963       .  S
Fe399       O417   2.083       .  S
Fe399       O404   2.098       .  S
Fe399       O411   2.094       .  S
Fe399       O400   2.065       .  S
Fe399       O408   1.990       .  S
O400        C407   1.273       .  A
O401        C415   1.265       .  A
O402        C407   1.273       .  A
O403        C406   1.264       .  A
O404        C416   1.275       .  A
O405        C418   1.268       .  A
C406        O411   1.271       .  A
C406       C1651   1.478       .  S
C407       C1321   1.482       .  S
O409        C412   1.265       .  A
O410        C412   1.266       .  A
C412       C1299   1.480       .  S
O413        C418   1.270       .  A
O414        C416   1.268       .  A
C415        O417   1.270       .  A
C415       C1343   1.476       .  S
C416       C1289   1.490       .  S
C418       C1365   1.465       .  S
Fe419       O435   2.065       .  S
Fe419       O425   2.073       .  S
Fe419       O432   2.076       .  S
Fe419       O424   2.051       .  S
Fe419       O430   1.979       .  S
Fe420       O423   2.042       .  S
Fe420       O427   2.073       .  S
Fe420       O431   2.045       .  S
Fe420       O436   2.063       .  S
Fe420       O430   1.960       .  S
Fe421       O439   2.095       .  S
Fe421       O426   2.074       .  S
Fe421       O433   2.059       .  S
Fe421       O422   2.088       .  S
Fe421       O430   1.984       .  S
O422        C429   1.270       .  A
O423        C437   1.267       .  A
O424        C429   1.266       .  A
O425        C428   1.273       .  A
O426        C438   1.268       .  A
O427        C440   1.269       .  A
C428        O433   1.271       .  A
C428       C1333   1.483       .  S
C429       C1707   1.478       .  S
O431        C434   1.267       .  A
O432        C434   1.271       .  A
C434       C1211   1.468       .  S
O435        C440   1.267       .  A
O436        C438   1.267       .  A
C437        O439   1.275       .  A
C437       C1245   1.486       .  S
C438       C1189   1.469       .  S
C440       C1267   1.484       .  S
Fe441       O457   2.071       .  S
Fe441       O447   2.050       .  S
Fe441       O454   2.069       .  S
Fe441       O446   2.064       .  S
Fe441       O452   1.982       .  S
Fe442       O445   2.051       .  S
Fe442       O449   2.044       .  S
Fe442       O453   2.067       .  S
Fe442       O458   2.044       .  S
Fe442       O452   1.964       .  S
Fe443       O461   2.089       .  S
Fe443       O448   2.102       .  S
Fe443       O455   2.106       .  S
Fe443       O444   2.074       .  S
Fe443       O452   1.991       .  S
O444        C451   1.272       .  A
O445        C459   1.267       .  A
O446        C451   1.270       .  A
O447        C450   1.267       .  A
O448        C460   1.276       .  A
O449        C462   1.264       .  A
C450        O455   1.275       .  A
C450       C1773   1.483       .  S
C451       C1123   1.484       .  S
O453        C456   1.269       .  A
O454        C456   1.269       .  A
C456       C1277   1.484       .  S
O457        C462   1.267       .  A
O458        C460   1.267       .  A
C459        O461   1.272       .  A
C459       C1167   1.479       .  S
C460       C1509   1.491       .  S
C462       C1145   1.461       .  S
Fe463       O479   2.065       .  S
Fe463       O469   2.077       .  S
Fe463       O476   2.083       .  S
Fe463       O468   2.046       .  S
Fe463       O474   1.979       .  S
Fe464       O467   2.046       .  S
Fe464       O471   2.063       .  S
Fe464       O475   2.042       .  S
Fe464       O480   2.055       .  S
Fe464       O474   1.961       .  S
Fe465       O483   2.089       .  S
Fe465       O470   2.083       .  S
Fe465       O477   2.063       .  S
Fe465       O466   2.094       .  S
Fe465       O474   1.985       .  S
O466        C473   1.272       .  A
O467        C481   1.267       .  A
O468        C473   1.266       .  A
O469        C472   1.273       .  A
O470        C482   1.271       .  A
O471        C484   1.268       .  A
C472        O477   1.271       .  A
C472       C1135   1.483       .  S
C473       C1805   1.479       .  S
O475        C478   1.265       .  A
O476        C478   1.271       .  A
C478       C1079   1.465       .  S
O479        C484   1.267       .  A
O480        C482   1.267       .  A
C481        O483   1.274       .  A
C481       C1453   1.486       .  S
C482       C1101   1.477       .  S
C484       C1233   1.483       .  S
Fe485       O501   2.084       .  S
Fe485       O491   2.047       .  S
Fe485       O498   2.062       .  S
Fe485       O490   2.083       .  S
Fe485       O496   1.959       .  S
Fe486       O489   2.072       .  S
Fe486       O493   2.051       .  S
Fe486       O497   2.073       .  S
Fe486       O502   2.045       .  S
Fe486       O496   1.947       .  S
Fe487       O505   2.080       .  S
Fe487       O492   2.106       .  S
Fe487       O499   2.099       .  S
Fe487       O488   2.061       .  S
Fe487       O496   1.965       .  S
O488        C495   1.273       .  A
O489        C503   1.268       .  A
O490        C495   1.276       .  A
O491        C494   1.265       .  A
O492        C504   1.278       .  A
O493        C506   1.271       .  A
C494        O499   1.272       .  A
C494       C1597   1.480       .  S
C495       C1013   1.485       .  S
O497        C500   1.268       .  A
O498        C500   1.265       .  A
C500       C1487   1.481       .  S
O501        C506   1.275       .  A
O502        C504   1.269       .  A
C503        O505   1.270       .  A
C503       C1035   1.475       .  S
C504       C1311   1.485       .  S
C506       C1057   1.470       .  S
Fe507       O523   2.060       .  S
Fe507       O513   2.077       .  S
Fe507       O520   2.081       .  S
Fe507       O512   2.049       .  S
Fe507       O518   1.953       .  S
Fe508       O511   2.043       .  S
Fe508       O515   2.079       .  S
Fe508       O519   2.047       .  S
Fe508       O524   2.073       .  S
Fe508       O518   1.941       .  S
Fe509       O527   2.115       .  S
Fe509       O514   2.077       .  S
Fe509       O521   2.062       .  S
Fe509       O510   2.102       .  S
Fe509       O518   1.961       .  S
O510        C517   1.274       .  A
O511        C525   1.268       .  A
O512        C517   1.267       .  A
O513        C516   1.274       .  A
O514        C526   1.269       .  A
O515        C528   1.271       .  A
C516        O521   1.273       .  A
C516       C1025   1.484       .  S
C517       C1619   1.483       .  S
O519        C522   1.268       .  A
O520        C522   1.272       .  A
C522        C991   1.465       .  S
O523        C528   1.267       .  A
O524        C526   1.271       .  A
C525        O527   1.279       .  A
C525       C1255   1.489   1_545  S
C526        C981   1.475       .  S
C528       C1431   1.484       .  S
Fe529       O545   2.058       .  S
Fe529       O535   2.081       .  S
Fe529       O542   2.081       .  S
Fe529       O534   2.047       .  S
Fe529       O540   1.958       .  S
Fe530       O533   2.046       .  S
Fe530       O537   2.075       .  S
Fe530       O541   2.046       .  S
Fe530       O546   2.066       .  S
Fe530       O540   1.949       .  S
Fe531       O549   2.107       .  S
Fe531       O536   2.080       .  S
Fe531       O543   2.062       .  S
Fe531       O532   2.100       .  S
Fe531       O540   1.962       .  S
O532        C539   1.274       .  A
O533        C547   1.270       .  A
O534        C539   1.266       .  A
O535        C538   1.274       .  A
O536        C548   1.269       .  A
O537        C550   1.269       .  A
C538        O543   1.273       .  A
C538        C947   1.487       .  S
C539       C2267   1.483       .  S
O541        C544   1.269       .  A
O542        C544   1.273       .  A
C544       C1387   1.462       .  S
O545        C550   1.266       .  A
O546        C548   1.266       .  A
C547        O549   1.279       .  A
C547        C903   1.488   1_545  S
C548       C1113   1.472       .  S
C550        C937   1.482       .  S
Fe551       O567   2.092       .  S
Fe551       O557   2.050       .  S
Fe551       O564   2.062       .  S
Fe551       O556   2.090       .  S
Fe551       O562   1.965       .  S
Fe552       O555   2.068       .  S
Fe552       O559   2.043       .  S
Fe552       O563   2.071       .  S
Fe552       O568   2.045       .  S
Fe552       O562   1.949       .  S
Fe553       O571   2.078       .  S
Fe553       O558   2.109       .  S
Fe553       O565   2.098       .  S
Fe553       O554   2.057       .  S
Fe553       O562   1.965       .  S
O554        C561   1.272       .  A
O555        C569   1.267       .  A
O556        C561   1.276       .  A
O557        C560   1.267       .  A
O558        C570   1.279       .  A
O559        C572   1.268       .  A
C560        O565   1.273       .  A
C560       C2191   1.482       .  S
C561        C959   1.488       .  S
O563        C566   1.269       .  A
O564        C566   1.267       .  A
C566        C893   1.484       .  S
O567        C572   1.275       .  A
O568        C570   1.269       .  A
C569        O571   1.268       .  A
C569       C1179   1.472       .  S
C570        C859   1.490   1_545  S
C572       C1575   1.468       .  S
Fe573       O589   2.068       .  S
Fe573       O579   2.055       .  S
Fe573       O586   2.073       .  S
Fe573       O578   2.047       .  S
Fe573       O584   1.979       .  S
Fe574       O577   2.052       .  S
Fe574       O581   2.062       .  S
Fe574       O585   2.049       .  S
Fe574       O590   2.054       .  S
Fe574       O584   1.964       .  S
Fe575       O593   2.082       .  S
Fe575       O580   2.085       .  S
Fe575       O587   2.085       .  S
Fe575       O576   2.087       .  S
Fe575       O584   1.985       .  S
O576        C583   1.269       .  A
O577        C591   1.267       .  A
O578        C583   1.264       .  A
O579        C582   1.272       .  A
O580        C592   1.272       .  A
O581        C594   1.267       .  A
C582        O587   1.276       .  A
C582        C837   1.483       .  S
C583       C2477   1.476       .  S
O585        C588   1.268       .  A
O586        C588   1.270       .  A
C588       C1091   1.463       .  S
O589        C594   1.266       .  A
O590        C592   1.268       .  A
C591        O593   1.272       .  A
C591        C815   1.485       .  S
C592       C1201   1.480       .  S
C594        C915   1.486       .  S
Fe595       O611   2.091       .  S
Fe595       O601   2.045       .  S
Fe595       O608   2.067       .  S
Fe595       O600   2.087       .  S
Fe595       O606   1.955       .  S
Fe596       O599   2.066       .  S
Fe596       O603   2.041       .  S
Fe596       O607   2.068       .  S
Fe596       O612   2.038       .  S
Fe596       O606   1.943       .  S
Fe597       O615   2.072       .  S
Fe597       O602   2.116       .  S
Fe597       O609   2.102       .  S
Fe597       O598   2.054       .  S
Fe597       O606   1.961       .  S
O598        C605   1.271       .  A
O599        C613   1.267       .  A
O600        C605   1.277       .  A
O601        C604   1.265       .  A
O602        C614   1.281       .  A
O603        C616   1.270       .  A
C604        O609   1.273       .  A
C604       C2389   1.482       .  S
C605        C849   1.484       .  S
O607        C610   1.267       .  A
O608        C610   1.266       .  A
C610        C871   1.483       .  S
O611        C616   1.277       .  A
O612        C614   1.268       .  A
C613        O615   1.266       .  A
C613       C1355   1.469       .  S
C614        C793   1.487   1_655  S
C616       C1157   1.470       .  S
Fe617       O633   2.072       .  S
Fe617       O623   2.071       .  S
Fe617       O630   2.078       .  S
Fe617       O622   2.051       .  S
Fe617       O628   1.974       .  S
Fe618       O621   2.044       .  S
Fe618       O625   2.056       .  S
Fe618       O629   2.048       .  S
Fe618       O634   2.042       .  S
Fe618       O628   1.954       .  S
Fe619       O637   2.097       .  S
Fe619       O624   2.090       .  S
Fe619       O631   2.071       .  S
Fe619       O620   2.094       .  S
Fe619       O628   1.985       .  S
O620        C627   1.273       .  A
O621        C635   1.268       .  A
O622        C627   1.267       .  A
O623        C626   1.273       .  A
O624        C636   1.271       .  A
O625        C638   1.266       .  A
C626        O631   1.273       .  A
C626        C783   1.487       .  S
C627       C2697   1.477       .  S
O629        C632   1.267       .  A
O630        C632   1.270       .  A
C632       C1223   1.463       .  S
O633        C638   1.268       .  A
O634        C636   1.265       .  A
C635        O637   1.276       .  A
C635        C749   1.487       .  S
C636        C969   1.480       .  S
C638        C827   1.481       .  S
Fe639       O655   2.078       .  S
Fe639       O645   2.041       .  S
Fe639       O652   2.063       .  S
Fe639       O644   2.067       .  S
Fe639       O650   1.976       .  S
Fe640       O643   2.046       .  S
Fe640       O647   2.044       .  S
Fe640       O651   2.063       .  S
Fe640       O656   2.043       .  S
Fe640       O650   1.960       .  S
Fe641       O659   2.089       .  S
Fe641       O646   2.100       .  S
Fe641       O653   2.097       .  S
Fe641       O642   2.074       .  S
Fe641       O650   1.991       .  S
O642        C649   1.273       .  A
O643        C657   1.265       .  A
O644        C649   1.272       .  A
O645        C648   1.266       .  A
O646        C658   1.276       .  A
O647        C660   1.266       .  A
C648        O653   1.273       .  A
C648       C2587   1.480       .  S
C649        C771   1.487       .  S
O651        C654   1.267       .  A
O652        C654   1.267       .  A
C654        C805   1.480       .  S
O655        C660   1.270       .  A
O656        C658   1.268       .  A
C657        O659   1.271       .  A
C657       C1047   1.480       .  S
C658        C727   1.488       .  S
C660       C1377   1.464       .  S
Fe661       O677   2.063       .  S
Fe661       O667   2.085       .  S
Fe661       O674   2.089       .  S
Fe661       O666   2.049       .  S
Fe661       O672   1.953       .  S
Fe662       O665   2.038       .  S
Fe662       O669   2.071       .  S
Fe662       O673   2.042       .  S
Fe662       O678   2.070       .  S
Fe662       O672   1.941       .  S
Fe663       O681   2.111       .  S
Fe663       O668   2.071       .  S
Fe663       O675   2.053       .  S
Fe663       O664   2.099       .  S
Fe663       O672   1.957       .  S
O664        C671   1.274       .  A
O665        C679   1.268       .  A
O666        C671   1.267       .  A
O667        C670   1.276       .  A
O668        C680   1.267       .  A
O669        C682   1.268       .  A
C670        O675   1.271       .  A
C670        C705   1.483       .  S
C671       C2103   1.483       .  S
O673        C676   1.269       .  A
O674        C676   1.275       .  A
C676       C1003   1.466       .  S
O677        C682   1.267       .  A
O678        C680   1.268       .  A
C679        O681   1.280       .  A
C679        C925   1.486       .  S
C680       C1421   1.469       .  S
C682        C761   1.482       .  S
Fe683       O699   2.080       .  S
Fe683       O689   2.045       .  S
Fe683       O696   2.064       .  S
Fe683       O688   2.070       .  S
Fe683       O694   1.979       .  S
Fe684       O687   2.058       .  S
Fe684       O691   2.041       .  S
Fe684       O695   2.071       .  S
Fe684       O700   2.047       .  S
Fe684       O694   1.962       .  S
Fe685       O703   2.074       .  S
Fe685       O690   2.092       .  S
Fe685       O697   2.095       .  S
Fe685       O686   2.063       .  S
Fe685       O694   1.989       .  S
O686        C693   1.270       .  A
O687        C701   1.266       .  A
O688        C693   1.272       .  A
O689        C692   1.266       .  A
O690        C702   1.275       .  A
O691        C704   1.265       .  A
C692        O697   1.273       .  A
C692       C2025   1.479       .  S
C693        C717   1.484       .  S
O695        C698   1.270       .  A
O696        C698   1.267       .  A
C698        C739   1.484       .  S
O699        C704   1.270       .  A
O700        C702   1.268       .  A
C701        O703   1.269       .  A
C701       C1553   1.471       .  S
C702        C881   1.487       .  S
C704       C1069   1.463       .  S
C705        C706   1.403       .  A
C705        C710   1.401       .  A
C706        C707   1.396       .  A
C706        H719   1.083       .  S
C707        C708   1.414       .  A
C707        H720   1.076       .  S
C708        C714   1.430   1_554  A
C708        C709   1.423       .  A
C709        C711   1.398       .  A
C709        C710   1.404       .  A
C710        H721   1.084       .  S
C711        C712   1.388   1_554  A
C711        H722   1.084       .  S
C712        C713   1.399       .  A
C712        H723   1.084       .  S
C713        C714   1.422       .  A
C713        C718   1.403       .  A
C714        C715   1.416       .  A
C715        C716   1.398       .  A
C715        H724   1.077       .  S
C716        C717   1.403       .  A
C716        H725   1.083       .  S
C717        C718   1.402       .  A
C718        H726   1.084       .  S
C727        C728   1.404       .  A
C727        C732   1.404   1_565  A
C728        C729   1.392   1_565  A
C728        H741   1.083       .  S
C729        C730   1.411       .  A
C729        H742   1.076       .  S
C730        C736   1.431       .  A
C730        C731   1.423       .  A
C731        C733   1.400       .  A
C731        C732   1.412       .  A
C732        H743   1.084       .  S
C733        C734   1.393       .  A
C733        H744   1.084       .  S
C734        C735   1.401       .  A
C734        H745   1.084       .  S
C735        C736   1.421       .  A
C735        C740   1.409       .  A
C736        C737   1.416       .  A
C737        C738   1.396       .  A
C737        H746   1.075       .  S
C738        C739   1.400       .  A
C738        H747   1.084       .  S
C739        C740   1.405       .  A
C740        H748   1.084       .  S
C749        C750   1.402   1_565  A
C749        C754   1.404       .  A
C750        C751   1.402       .  A
C750        H763   1.083       .  S
C751        C752   1.417       .  A
C751        H764   1.077       .  S
C752        C758   1.432       .  A
C752        C753   1.421       .  A
C753        C755   1.399       .  A
C753        C754   1.401   1_545  A
C754        H765   1.084       .  S
C755        C756   1.387       .  A
C755        H766   1.084       .  S
C756        C757   1.398       .  A
C756        H767   1.084       .  S
C757        C758   1.423       .  A
C757        C762   1.403       .  A
C758        C759   1.416       .  A
C759        C760   1.401       .  A
C759        H768   1.077       .  S
C760        C761   1.402       .  A
C760        H769   1.083       .  S
C761        C762   1.401       .  A
C762        H770   1.085       .  S
C771        C772   1.403       .  A
C771        C776   1.404       .  A
C772        C773   1.400       .  A
C772        H785   1.083       .  S
C773        C774   1.416       .  A
C773        H786   1.078       .  S
C774        C780   1.432   1_556  A
C774        C775   1.422       .  A
C775        C777   1.399       .  A
C775        C776   1.404       .  A
C776        H787   1.084       .  S
C777        C778   1.388   1_556  A
C777        H788   1.084       .  S
C778        C779   1.399       .  A
C778        H789   1.084       .  S
C779        C780   1.422       .  A
C779        C784   1.404       .  A
C780        C781   1.415       .  A
C781        C782   1.399       .  A
C781        H790   1.078       .  S
C782        C783   1.403       .  A
C782        H791   1.083       .  S
C783        C784   1.403       .  A
C784        H792   1.084       .  S
C793        C794   1.405       .  A
C793        C798   1.403       .  A
C794        C795   1.394       .  A
C794        H807   1.083   1_455  S
C795        C796   1.412       .  A
C795        H808   1.077       .  S
C796        C802   1.430       .  A
C796        C797   1.423       .  A
C797        C799   1.399       .  A
C797        C798   1.409       .  A
C798        H809   1.084       .  S
C799        C800   1.391       .  A
C799        H810   1.084       .  S
C800        C801   1.400       .  A
C800        H811   1.084       .  S
C801        C802   1.422       .  A
C801        C806   1.406       .  A
C802        C803   1.416       .  A
C803        C804   1.396       .  A
C803        H812   1.077       .  S
C804        C805   1.400       .  A
C804        H813   1.084       .  S
C805        C806   1.403       .  A
C806        H814   1.084       .  S
C815        C816   1.403   1_655  A
C815        C820   1.403   1_655  A
C816        C817   1.395       .  A
C816        H829   1.083   1_455  S
C817        C818   1.414       .  A
C817        H830   1.077       .  S
C818        C824   1.431       .  A
C818        C819   1.422       .  A
C819        C821   1.400       .  A
C819        C820   1.409       .  A
C820        H831   1.084       .  S
C821        C822   1.392       .  A
C821        H832   1.084       .  S
C822        C823   1.400       .  A
C822        H833   1.084       .  S
C823        C824   1.423       .  A
C823        C828   1.409       .  A
C824        C825   1.414       .  A
C825        C826   1.394       .  A
C825        H834   1.077       .  S
C826        C827   1.401       .  A
C826        H835   1.084       .  S
C827        C828   1.403       .  A
C828        H836   1.084       .  S
C837        C838   1.401       .  A
C837        C842   1.402       .  A
C838        C839   1.399       .  A
C838        H851   1.083       .  S
C839        C840   1.417       .  A
C839        H852   1.077       .  S
C840        C846   1.431   1_554  A
C840        C841   1.421       .  A
C841        C843   1.399       .  A
C841        C842   1.402       .  A
C842        H853   1.084       .  S
C843        C844   1.388   1_554  A
C843        H854   1.084       .  S
C844        C845   1.398       .  A
C844        H855   1.084       .  S
C845        C846   1.423       .  A
C845        C850   1.404       .  A
C846        C847   1.414       .  A
C847        C848   1.396       .  A
C847        H856   1.077       .  S
C848        C849   1.404       .  A
C848        H857   1.083       .  S
C849        C850   1.401       .  A
C850        H858   1.084       .  S
C859        C860   1.403       .  A
C859        C864   1.405       .  A
C860        C861   1.403       .  A
C860        H873   1.083       .  S
C861        C862   1.417       .  A
C861        H874   1.078       .  S
C862        C868   1.434       .  A
C862        C863   1.422       .  A
C863        C865   1.399       .  A
C863        C864   1.403       .  A
C864        H875   1.085   1_565  S
C865        C866   1.388       .  A
C865        H876   1.084       .  S
C866        C867   1.398       .  A
C866        H877   1.084       .  S
C867        C868   1.423       .  A
C867        C872   1.403       .  A
C868        C869   1.417       .  A
C869        C870   1.402       .  A
C869        H878   1.078       .  S
C870        C871   1.402       .  A
C870        H879   1.083       .  S
C871        C872   1.401       .  A
C872        H880   1.085       .  S
C881        C882   1.402   1_455  A
C881        C886   1.404       .  A
C882        C883   1.402       .  A
C882        H895   1.083       .  S
C883        C884   1.417       .  A
C883        H896   1.078       .  S
C884        C890   1.433       .  A
C884        C885   1.421       .  A
C885        C887   1.399       .  A
C885        C886   1.401   1_655  A
C886        H897   1.085       .  S
C887        C888   1.387       .  A
C887        H898   1.084       .  S
C888        C889   1.398       .  A
C888        H899   1.084       .  S
C889        C890   1.423       .  A
C889        C894   1.403       .  A
C890        C891   1.416       .  A
C891        C892   1.401       .  A
C891        H900   1.078       .  S
C892        C893   1.403       .  A
C892        H901   1.083       .  S
C893        C894   1.401       .  A
C894        H902   1.085       .  S
C903        C904   1.402       .  A
C903        C908   1.404       .  A
C904        C905   1.401       .  A
C904        H917   1.083       .  S
C905        C906   1.417       .  A
C905        H918   1.077       .  S
C906        C912   1.433       .  A
C906        C907   1.421       .  A
C907        C909   1.399       .  A
C907        C908   1.403       .  A
C908        H919   1.084   1_565  S
C909        C910   1.388       .  A
C909        H920   1.084       .  S
C910        C911   1.398       .  A
C910        H921   1.084       .  S
C911        C912   1.423       .  A
C911        C916   1.404       .  A
C912        C913   1.415       .  A
C913        C914   1.400       .  A
C913        H922   1.077       .  S
C914        C915   1.404       .  A
C914        H923   1.083       .  S
C915        C916   1.402       .  A
C916        H924   1.084       .  S
C925        C926   1.401   1_455  A
C925        C930   1.405   1_455  A
C926        C927   1.401       .  A
C926        H939   1.083       .  S
C927        C928   1.417       .  A
C927        H940   1.077       .  S
C928        C934   1.432       .  A
C928        C929   1.421       .  A
C929        C931   1.400       .  A
C929        C930   1.402       .  A
C930        H941   1.084   1_655  S
C931        C932   1.388       .  A
C931        H942   1.084       .  S
C932        C933   1.398       .  A
C932        H943   1.084       .  S
C933        C934   1.423       .  A
C933        C938   1.405       .  A
C934        C935   1.415       .  A
C935        C936   1.399       .  A
C935        H944   1.077       .  S
C936        C937   1.402       .  A
C936        H945   1.083       .  S
C937        C938   1.401       .  A
C938        H946   1.085       .  S
C947        C948   1.401       .  A
C947        C952   1.405       .  A
C948        C949   1.394       .  A
C948        H961   1.083       .  S
C949        C950   1.414       .  A
C949        H962   1.076       .  S
C950        C956   1.431   1_554  A
C950        C951   1.422       .  A
C951        C953   1.401       .  A
C951        C952   1.408       .  A
C952        H963   1.084       .  S
C953        C954   1.393   1_554  A
C953        H964   1.084       .  S
C954        C955   1.401       .  A
C954        H965   1.084       .  S
C955        C956   1.423       .  A
C955        C960   1.410       .  A
C956        C957   1.413       .  A
C957        C958   1.393       .  A
C957        H966   1.076       .  S
C958        C959   1.402       .  A
C958        H967   1.083       .  S
C959        C960   1.405       .  A
C960        H968   1.084       .  S
C969        C970   1.401       .  A
C969        C974   1.398       .  A
C970        C971   1.410       .  A
C970        H983   1.083       .  S
C971        C972   1.421       .  A
C971        H984   1.078   1_565  S
C972        C978   1.436       .  A
C972        C973   1.422       .  A
C973        C975   1.397       .  A
C973        C974   1.396       .  A
C974        H985   1.086       .  S
C975        C976   1.382       .  A
C975        H986   1.084       .  S
C976        C977   1.396       .  A
C976        H987   1.084       .  S
C977        C978   1.424       .  A
C977        C982   1.398       .  A
C978        C979   1.419   1_565  A
C979        C980   1.408       .  A
C979        H988   1.078       .  S
C980        C981   1.401       .  A
C980        H989   1.083       .  S
C981        C982   1.395   1_545  A
C982        H990   1.086       .  S
C991        C992   1.397       .  A
C991        C996   1.398       .  A
C992        C993   1.392       .  A
C992       H1005   1.084       .  S
C993        C994   1.414       .  A
C993       H1006   1.077       .  S
C994       C1000   1.425       .  A
C994        C995   1.424       .  A
C995        C997   1.399       .  A
C995        C996   1.403       .  A
C996       H1007   1.085       .  S
C997        C998   1.389       .  A
C997       H1008   1.084       .  S
C998        C999   1.399       .  A
C998       H1009   1.084       .  S
C999       C1000   1.421       .  A
C999       C1004   1.400       .  A
C1000      C1001   1.415       .  A
C1001      C1002   1.394       .  A
C1001      H1010   1.077       .  S
C1002      C1003   1.397       .  A
C1002      H1011   1.084       .  S
C1003      C1004   1.399       .  A
C1004      H1012   1.085       .  S
C1013      C1014   1.402       .  A
C1013      C1018   1.404       .  A
C1014      C1015   1.397       .  A
C1014      H1027   1.083       .  S
C1015      C1016   1.415       .  A
C1015      H1028   1.078       .  S
C1016      C1022   1.430       .  A
C1016      C1017   1.422       .  A
C1017      C1019   1.399       .  A
C1017      C1018   1.404       .  A
C1018      H1029   1.085       .  S
C1019      C1020   1.389       .  A
C1019      H1030   1.084       .  S
C1020      C1021   1.399       .  A
C1020      H1031   1.084       .  S
C1021      C1022   1.422       .  A
C1021      C1026   1.404       .  A
C1022      C1023   1.414       .  A
C1023      C1024   1.396       .  A
C1023      H1032   1.078       .  S
C1024      C1025   1.403       .  A
C1024      H1033   1.083       .  S
C1025      C1026   1.402       .  A
C1026      H1034   1.084       .  S
C1035      C1036   1.399       .  A
C1035      C1040   1.399   1_545  A
C1036      C1037   1.404       .  A
C1036      H1049   1.083       .  S
C1037      C1038   1.418   1_545  A
C1037      H1050   1.077       .  S
C1038      C1044   1.435       .  A
C1038      C1039   1.424       .  A
C1039      C1041   1.398       .  A
C1039      C1040   1.403       .  A
C1040      H1051   1.085       .  S
C1041      C1042   1.387       .  A
C1041      H1052   1.084       .  S
C1042      C1043   1.399       .  A
C1042      H1053   1.084       .  S
C1043      C1044   1.422       .  A
C1043      C1048   1.401       .  A
C1044      C1045   1.419       .  A
C1045      C1046   1.405       .  A
C1045      H1054   1.078   1_565  S
C1046      C1047   1.399       .  A
C1046      H1055   1.083       .  S
C1047      C1048   1.401       .  A
C1048      H1056   1.085       .  S
C1057      C1058   1.398       .  A
C1057      C1062   1.400       .  A
C1058      C1059   1.395       .  A
C1058      H1071   1.083       .  S
C1059      C1060   1.416       .  A
C1059      H1072   1.078       .  S
C1060      C1066   1.427       .  A
C1060      C1061   1.422       .  A
C1061      C1063   1.399       .  A
C1061      C1062   1.402       .  A
C1062      H1073   1.085       .  S
C1063      C1064   1.389       .  A
C1063      H1074   1.084       .  S
C1064      C1065   1.399       .  A
C1064      H1075   1.084       .  S
C1065      C1066   1.424       .  A
C1065      C1070   1.404       .  A
C1066      C1067   1.414       .  A
C1067      C1068   1.393       .  A
C1067      H1076   1.077       .  S
C1068      C1069   1.397       .  A
C1068      H1077   1.084       .  S
C1069      C1070   1.397       .  A
C1070      H1078   1.085       .  S
C1079      C1080   1.398       .  A
C1079      C1084   1.396       .  A
C1080      C1081   1.394       .  A
C1080      H1093   1.084       .  S
C1081      C1082   1.414       .  A
C1081      H1094   1.077       .  S
C1082      C1088   1.428       .  A
C1082      C1083   1.425       .  A
C1083      C1085   1.399       .  A
C1083      C1084   1.404       .  A
C1084      H1095   1.085       .  S
C1085      C1086   1.388       .  A
C1085      H1096   1.084       .  S
C1086      C1087   1.399       .  A
C1086      H1097   1.084       .  S
C1087      C1088   1.421       .  A
C1087      C1092   1.399       .  A
C1088      C1089   1.418       .  A
C1089      C1090   1.399       .  A
C1089      H1098   1.078       .  S
C1090      C1091   1.396       .  A
C1090      H1099   1.084       .  S
C1091      C1092   1.398       .  A
C1092      H1100   1.086       .  S
C1101      C1102   1.399       .  A
C1101      C1106   1.400       .  A
C1102      C1103   1.404       .  A
C1102      H1115   1.083       .  S
C1103      C1104   1.419       .  A
C1103      H1116   1.078   1_565  S
C1104      C1110   1.435       .  A
C1104      C1105   1.423       .  A
C1105      C1107   1.398       .  A
C1105      C1106   1.402       .  A
C1106      H1117   1.086       .  S
C1107      C1108   1.387       .  A
C1107      H1118   1.084       .  S
C1108      C1109   1.398       .  A
C1108      H1119   1.084       .  S
C1109      C1110   1.424       .  A
C1109      C1114   1.403       .  A
C1110      C1111   1.418   1_565  A
C1111      C1112   1.404       .  A
C1111      H1120   1.078       .  S
C1112      C1113   1.399       .  A
C1112      H1121   1.083       .  S
C1113      C1114   1.397   1_545  A
C1114      H1122   1.085       .  S
C1123      C1124   1.400       .  A
C1123      C1128   1.404       .  A
C1124      C1125   1.398       .  A
C1124      H1137   1.083       .  S
C1125      C1126   1.416       .  A
C1125      H1138   1.076       .  S
C1126      C1132   1.431       .  A
C1126      C1127   1.422       .  A
C1127      C1129   1.400       .  A
C1127      C1128   1.405       .  A
C1128      H1139   1.084       .  S
C1129      C1130   1.390       .  A
C1129      H1140   1.084       .  S
C1130      C1131   1.399       .  A
C1130      H1141   1.084       .  S
C1131      C1132   1.423       .  A
C1131      C1136   1.407       .  A
C1132      C1133   1.414       .  A
C1133      C1134   1.396       .  A
C1133      H1142   1.076       .  S
C1134      C1135   1.402       .  A
C1134      H1143   1.083       .  S
C1135      C1136   1.403       .  A
C1136      H1144   1.084       .  S
C1145      C1146   1.396       .  A
C1145      C1150   1.396       .  A
C1146      C1147   1.394       .  A
C1146      H1159   1.084       .  S
C1147      C1148   1.415       .  A
C1147      H1160   1.077       .  S
C1148      C1154   1.426       .  A
C1148      C1149   1.424       .  A
C1149      C1151   1.399       .  A
C1149      C1150   1.403       .  A
C1150      H1161   1.085       .  S
C1151      C1152   1.388       .  A
C1151      H1162   1.084       .  S
C1152      C1153   1.399       .  A
C1152      H1163   1.084       .  S
C1153      C1154   1.421       .  A
C1153      C1158   1.400       .  A
C1154      C1155   1.416       .  A
C1155      C1156   1.396       .  A
C1155      H1164   1.077       .  S
C1156      C1157   1.397       .  A
C1156      H1165   1.083       .  S
C1157      C1158   1.400       .  A
C1158      H1166   1.085       .  S
C1167      C1168   1.400       .  A
C1167      C1172   1.400       .  A
C1168      C1169   1.405       .  A
C1168      H1181   1.083       .  S
C1169      C1170   1.419       .  A
C1169      H1182   1.078   1_565  S
C1170      C1176   1.435       .  A
C1170      C1171   1.423       .  A
C1171      C1173   1.398       .  A
C1171      C1172   1.401       .  A
C1172      H1183   1.085       .  S
C1173      C1174   1.386       .  A
C1173      H1184   1.084       .  S
C1174      C1175   1.398       .  A
C1174      H1185   1.084       .  S
C1175      C1176   1.424       .  A
C1175      C1180   1.402   1_565  A
C1176      C1177   1.418   1_565  A
C1177      C1178   1.404       .  A
C1177      H1186   1.078       .  S
C1178      C1179   1.399       .  A
C1178      H1187   1.083       .  S
C1179      C1180   1.397       .  A
C1180      H1188   1.085   1_545  S
C1189      C1190   1.398       .  A
C1189      C1194   1.397       .  A
C1190      C1191   1.402       .  A
C1190      H1203   1.084       .  S
C1191      C1192   1.418       .  A
C1191      H1204   1.077       .  S
C1192      C1198   1.433   1_455  A
C1192      C1193   1.424   1_455  A
C1193      C1195   1.399       .  A
C1193      C1194   1.403   1_655  A
C1194      H1205   1.085   1_455  S
C1195      C1196   1.388       .  A
C1195      H1206   1.084       .  S
C1196      C1197   1.399       .  A
C1196      H1207   1.084       .  S
C1197      C1198   1.423       .  A
C1197      C1202   1.403       .  A
C1198      C1199   1.417       .  A
C1199      C1200   1.402       .  A
C1199      H1208   1.077   1_655  S
C1200      C1201   1.400       .  A
C1200      H1209   1.083       .  S
C1201      C1202   1.402       .  A
C1202      H1210   1.085       .  S
C1211      C1212   1.397       .  A
C1211      C1216   1.399       .  A
C1212      C1213   1.397       .  A
C1212      H1225   1.083       .  S
C1213      C1214   1.417       .  A
C1213      H1226   1.077       .  S
C1214      C1220   1.426       .  A
C1214      C1215   1.421       .  A
C1215      C1217   1.399       .  A
C1215      C1216   1.399       .  A
C1216      H1227   1.085       .  S
C1217      C1218   1.388       .  A
C1217      H1228   1.084       .  S
C1218      C1219   1.399       .  A
C1218      H1229   1.084       .  S
C1219      C1220   1.424       .  A
C1219      C1224   1.403       .  A
C1220      C1221   1.415       .  A
C1221      C1222   1.394       .  A
C1221      H1230   1.077       .  S
C1222      C1223   1.396       .  A
C1222      H1231   1.084       .  S
C1223      C1224   1.396       .  A
C1224      H1232   1.085       .  S
C1233      C1234   1.400       .  A
C1233      C1238   1.405       .  A
C1234      C1235   1.393       .  A
C1234      H1247   1.084       .  S
C1235      C1236   1.414       .  A
C1235      H1248   1.077       .  S
C1236      C1242   1.429       .  A
C1236      C1237   1.422       .  A
C1237      C1239   1.401       .  A
C1237      C1238   1.409       .  A
C1238      H1249   1.084       .  S
C1239      C1240   1.393       .  A
C1239      H1250   1.084       .  S
C1240      C1241   1.400       .  A
C1240      H1251   1.084       .  S
C1241      C1242   1.423       .  A
C1241      C1246   1.410       .  A
C1242      C1243   1.411       .  A
C1243      C1244   1.392   1_655  A
C1243      H1252   1.077       .  S
C1244      C1245   1.403       .  A
C1244      H1253   1.083       .  S
C1245      C1246   1.405   1_455  A
C1246      H1254   1.084       .  S
C1255      C1256   1.404       .  A
C1255      C1260   1.404       .  A
C1256      C1257   1.396       .  A
C1256      H1269   1.083   1_565  S
C1257      C1258   1.412       .  A
C1257      H1270   1.078       .  S
C1258      C1264   1.432       .  A
C1258      C1259   1.423       .  A
C1259      C1261   1.400       .  A
C1259      C1260   1.410       .  A
C1260      H1271   1.084       .  S
C1261      C1262   1.392       .  A
C1261      H1272   1.084       .  S
C1262      C1263   1.401       .  A
C1262      H1273   1.084       .  S
C1263      C1264   1.422       .  A
C1263      C1268   1.408       .  A
C1264      C1265   1.416       .  A
C1265      C1266   1.399       .  A
C1265      H1274   1.078       .  S
C1266      C1267   1.401       .  A
C1266      H1275   1.083       .  S
C1267      C1268   1.403       .  A
C1268      H1276   1.085       .  S
C1277      C1278   1.401       .  A
C1277      C1282   1.404       .  A
C1278      C1279   1.397       .  A
C1278      H1291   1.084       .  S
C1279      C1280   1.416       .  A
C1279      H1292   1.076       .  S
C1280      C1286   1.432       .  A
C1280      C1281   1.422       .  A
C1281      C1283   1.401       .  A
C1281      C1282   1.408       .  A
C1282      H1293   1.084       .  S
C1283      C1284   1.393       .  A
C1283      H1294   1.084       .  S
C1284      C1285   1.400       .  A
C1284      H1295   1.084       .  S
C1285      C1286   1.423       .  A
C1285      C1290   1.411       .  A
C1286      C1287   1.412       .  A
C1287      C1288   1.395   1_655  A
C1287      H1296   1.076       .  S
C1288      C1289   1.404       .  A
C1288      H1297   1.083       .  S
C1289      C1290   1.405   1_455  A
C1290      H1298   1.084       .  S
C1299      C1300   1.400       .  A
C1299      C1304   1.402       .  A
C1300      C1301   1.397       .  A
C1300      H1313   1.084       .  S
C1301      C1302   1.416       .  A
C1301      H1314   1.076       .  S
C1302      C1308   1.431       .  A
C1302      C1303   1.422       .  A
C1303      C1305   1.400       .  A
C1303      C1304   1.407       .  A
C1304      H1315   1.084       .  S
C1305      C1306   1.391       .  A
C1305      H1316   1.084       .  S
C1306      C1307   1.400       .  A
C1306      H1317   1.084       .  S
C1307      C1308   1.423       .  A
C1307      C1312   1.408       .  A
C1308      C1309   1.414       .  A
C1309      C1310   1.396       .  A
C1309      H1318   1.076       .  S
C1310      C1311   1.403   1_565  A
C1310      H1319   1.083   1_565  S
C1311      C1312   1.403   1_545  A
C1312      H1320   1.084       .  S
C1321      C1322   1.401       .  A
C1321      C1326   1.404       .  A
C1322      C1323   1.393       .  A
C1322      H1335   1.083       .  S
C1323      C1324   1.414       .  A
C1323      H1336   1.078       .  S
C1324      C1330   1.428       .  A
C1324      C1325   1.422       .  A
C1325      C1327   1.400       .  A
C1325      C1326   1.405       .  A
C1326      H1337   1.085       .  S
C1327      C1328   1.390       .  A
C1327      H1338   1.084       .  S
C1328      C1329   1.400       .  A
C1328      H1339   1.084       .  S
C1329      C1330   1.422       .  A
C1329      C1334   1.406       .  A
C1330      C1331   1.413       .  A
C1331      C1332   1.393       .  A
C1331      H1340   1.078       .  S
C1332      C1333   1.401       .  A
C1332      H1341   1.083       .  S
C1333      C1334   1.404       .  A
C1334      H1342   1.085       .  S
C1343      C1344   1.399       .  A
C1343      C1348   1.399       .  A
C1344      C1345   1.405       .  A
C1344      H1357   1.083       .  S
C1345      C1346   1.419       .  A
C1345      H1358   1.078   1_455  S
C1346      C1352   1.433       .  A
C1346      C1347   1.422       .  A
C1347      C1349   1.398       .  A
C1347      C1348   1.397       .  A
C1348      H1359   1.086       .  S
C1349      C1350   1.385       .  A
C1349      H1360   1.084       .  S
C1350      C1351   1.397       .  A
C1350      H1361   1.084       .  S
C1351      C1352   1.424       .  A
C1351      C1356   1.399       .  A
C1352      C1353   1.418   1_455  A
C1353      C1354   1.403       .  A
C1353      H1362   1.078       .  S
C1354      C1355   1.398       .  A
C1354      H1363   1.083       .  S
C1355      C1356   1.396   1_655  A
C1356      H1364   1.086       .  S
C1365      C1366   1.396       .  A
C1365      C1370   1.399       .  A
C1366      C1367   1.396       .  A
C1366      H1379   1.083       .  S
C1367      C1368   1.416       .  A
C1367      H1380   1.078       .  S
C1368      C1374   1.426       .  A
C1368      C1369   1.421       .  A
C1369      C1371   1.399       .  A
C1369      C1370   1.401       .  A
C1370      H1381   1.085       .  S
C1371      C1372   1.390       .  A
C1371      H1382   1.084       .  S
C1372      C1373   1.399       .  A
C1372      H1383   1.084       .  S
C1373      C1374   1.425       .  A
C1373      C1378   1.404       .  A
C1374      C1375   1.414       .  A
C1375      C1376   1.393       .  A
C1375      H1384   1.078       .  S
C1376      C1377   1.397       .  A
C1376      H1385   1.084       .  S
C1377      C1378   1.397       .  A
C1378      H1386   1.085       .  S
C1387      C1388   1.397       .  A
C1387      C1392   1.396       .  A
C1388      C1389   1.394       .  A
C1388      H1401   1.084       .  S
C1389      C1390   1.415       .  A
C1389      H1402   1.077       .  S
C1390      C1396   1.425       .  A
C1390      C1391   1.424       .  A
C1391      C1393   1.398       .  A
C1391      C1392   1.400       .  A
C1392      H1403   1.085       .  S
C1393      C1394   1.387       .  A
C1393      H1404   1.084       .  S
C1394      C1395   1.399       .  A
C1394      H1405   1.084       .  S
C1395      C1396   1.421       .  A
C1395      C1400   1.398       .  A
C1396      C1397   1.417       .  A
C1397      C1398   1.397       .  A
C1397      H1406   1.077       .  S
C1398      C1399   1.396       .  A
C1398      H1407   1.084       .  S
C1399      C1400   1.399       .  A
C1400      H1408   1.084       .  S
C1409      C1410   1.398       .  A
C1409      C1414   1.399       .  A
C1410      C1411   1.404       .  A
C1410      H1423   1.083       .  S
C1411      C1412   1.419       .  A
C1411      H1424   1.077   1_655  S
C1412      C1418   1.432       .  A
C1412      C1413   1.422       .  A
C1413      C1415   1.398       .  A
C1413      C1414   1.398       .  A
C1414      H1425   1.085       .  S
C1415      C1416   1.386       .  A
C1415      H1426   1.084       .  S
C1416      C1417   1.398       .  A
C1416      H1427   1.084       .  S
C1417      C1418   1.423       .  A
C1417      C1422   1.400   1_655  A
C1418      C1419   1.418   1_655  A
C1419      C1420   1.402       .  A
C1419      H1428   1.078       .  S
C1420      C1421   1.398       .  A
C1420      H1429   1.083       .  S
C1421      C1422   1.397       .  A
C1422      H1430   1.086   1_455  S
C1431      C1432   1.402       .  A
C1431      C1436   1.402       .  A
C1432      C1433   1.399       .  A
C1432      H1445   1.083       .  S
C1433      C1434   1.415       .  A
C1433      H1446   1.077       .  S
C1434      C1440   1.433       .  A
C1434      C1435   1.423       .  A
C1435      C1437   1.399       .  A
C1435      C1436   1.406       .  A
C1436      H1447   1.085       .  S
C1437      C1438   1.389       .  A
C1437      H1448   1.084       .  S
C1438      C1439   1.400       .  A
C1438      H1449   1.084       .  S
C1439      C1440   1.421       .  A
C1439      C1444   1.403       .  A
C1440      C1441   1.417       .  A
C1441      C1442   1.402       .  A
C1441      H1450   1.077       .  S
C1442      C1443   1.402   1_455  A
C1442      H1451   1.083       .  S
C1443      C1444   1.406   1_655  A
C1444      H1452   1.084   1_455  S
C1453      C1454   1.402   1_565  A
C1453      C1458   1.404       .  A
C1454      C1455   1.401       .  A
C1454      H1467   1.083       .  S
C1455      C1456   1.416       .  A
C1455      H1468   1.077       .  S
C1456      C1462   1.431       .  A
C1456      C1457   1.421       .  A
C1457      C1459   1.399       .  A
C1457      C1458   1.402   1_545  A
C1458      H1469   1.084       .  S
C1459      C1460   1.387       .  A
C1459      H1470   1.084       .  S
C1460      C1461   1.398       .  A
C1460      H1471   1.084       .  S
C1461      C1462   1.422       .  A
C1461      C1466   1.403       .  A
C1462      C1463   1.415       .  A
C1463      C1464   1.400       .  A
C1463      H1472   1.077       .  S
C1464      C1465   1.402       .  A
C1464      H1473   1.083       .  S
C1465      C1466   1.402       .  A
C1466      H1474   1.085       .  S
C1475      C1476   1.403       .  A
C1475      C1480   1.405       .  A
C1476      C1477   1.394       .  A
C1476      H1489   1.083   1_455  S
C1477      C1478   1.412       .  A
C1477      H1490   1.077       .  S
C1478      C1484   1.431       .  A
C1478      C1479   1.423       .  A
C1479      C1481   1.401       .  A
C1479      C1480   1.411       .  A
C1480      H1491   1.084       .  S
C1481      C1482   1.394       .  A
C1481      H1492   1.084       .  S
C1482      C1483   1.401       .  A
C1482      H1493   1.084       .  S
C1483      C1484   1.422       .  A
C1483      C1488   1.410       .  A
C1484      C1485   1.415       .  A
C1485      C1486   1.396       .  A
C1485      H1494   1.077       .  S
C1486      C1487   1.399       .  A
C1486      H1495   1.084       .  S
C1487      C1488   1.404       .  A
C1488      H1496   1.084       .  S
C1497      C1498   1.400       .  A
C1497      C1502   1.405       .  A
C1498      C1499   1.396       .  A
C1498      H1511   1.084       .  S
C1499      C1500   1.416       .  A
C1499      H1512   1.076       .  S
C1500      C1506   1.432       .  A
C1500      C1501   1.422       .  A
C1501      C1503   1.401       .  A
C1501      C1502   1.410       .  A
C1502      H1513   1.084       .  S
C1503      C1504   1.394       .  A
C1503      H1514   1.084       .  S
C1504      C1505   1.401       .  A
C1504      H1515   1.084       .  S
C1505      C1506   1.424       .  A
C1505      C1510   1.413       .  A
C1506      C1507   1.412       .  A
C1507      C1508   1.394   1_545  A
C1507      H1516   1.076       .  S
C1508      C1509   1.404       .  A
C1508      H1517   1.083       .  S
C1509      C1510   1.405   1_565  A
C1510      H1518   1.084       .  S
C1519      C1520   1.400       .  A
C1519      C1524   1.403       .  A
C1520      C1521   1.394       .  A
C1520      H1533   1.083       .  S
C1521      C1522   1.415       .  A
C1521      H1534   1.077       .  S
C1522      C1528   1.427       .  A
C1522      C1523   1.421       .  A
C1523      C1525   1.400       .  A
C1523      C1524   1.403       .  A
C1524      H1535   1.084       .  S
C1525      C1526   1.390       .  A
C1525      H1536   1.084       .  S
C1526      C1527   1.399       .  A
C1526      H1537   1.084       .  S
C1527      C1528   1.423       .  A
C1527      C1532   1.405       .  A
C1528      C1529   1.412       .  A
C1529      C1530   1.392       .  A
C1529      H1538   1.077       .  S
C1530      C1531   1.401       .  A
C1530      H1539   1.083       .  S
C1531      C1532   1.403       .  A
C1532      H1540   1.084       .  S
C1541      C1542   1.397       .  A
C1541      C1546   1.398   1_655  A
C1542      C1543   1.399       .  A
C1542      H1555   1.084       .  S
C1543      C1544   1.417   1_655  A
C1543      H1556   1.077       .  S
C1544      C1550   1.432       .  A
C1544      C1545   1.424       .  A
C1545      C1547   1.399       .  A
C1545      C1546   1.405       .  A
C1546      H1557   1.085       .  S
C1547      C1548   1.389       .  A
C1547      H1558   1.084       .  S
C1548      C1549   1.399       .  A
C1548      H1559   1.084       .  S
C1549      C1550   1.423       .  A
C1549      C1554   1.404       .  A
C1550      C1551   1.417       .  A
C1551      C1552   1.400       .  A
C1551      H1560   1.077   1_455  S
C1552      C1553   1.398       .  A
C1552      H1561   1.084       .  S
C1553      C1554   1.399       .  A
C1554      H1562   1.085       .  S
C1563      C1564   1.397       .  A
C1563      C1568   1.399       .  A
C1564      C1565   1.395       .  A
C1564      H1577   1.084       .  S
C1565      C1566   1.416       .  A
C1565      H1578   1.078       .  S
C1566      C1572   1.426       .  A
C1566      C1567   1.421       .  A
C1567      C1569   1.399       .  A
C1567      C1568   1.401       .  A
C1568      H1579   1.085       .  S
C1569      C1570   1.389       .  A
C1569      H1580   1.084       .  S
C1570      C1571   1.399       .  A
C1570      H1581   1.084       .  S
C1571      C1572   1.424       .  A
C1571      C1576   1.404       .  A
C1572      C1573   1.413       .  A
C1573      C1574   1.392       .  A
C1573      H1582   1.078       .  S
C1574      C1575   1.398       .  A
C1574      H1583   1.084       .  S
C1575      C1576   1.398       .  A
C1576      H1584   1.085       .  S
C1585      C1586   1.399       .  A
C1585      C1590   1.403       .  A
C1586      C1587   1.393       .  A
C1586      H1599   1.084       .  S
C1587      C1588   1.414       .  A
C1587      H1600   1.076       .  S
C1588      C1594   1.431       .  A
C1588      C1589   1.424       .  A
C1589      C1591   1.401       .  A
C1589      C1590   1.414       .  A
C1590      H1601   1.084       .  S
C1591      C1592   1.395       .  A
C1591      H1602   1.084       .  S
C1592      C1593   1.402       .  A
C1592      H1603   1.084       .  S
C1593      C1594   1.423       .  A
C1593      C1598   1.414       .  A
C1594      C1595   1.414       .  A
C1595      C1596   1.393       .  A
C1595      H1604   1.076       .  S
C1596      C1597   1.399       .  A
C1596      H1605   1.084       .  S
C1597      C1598   1.404       .  A
C1598      H1606   1.084       .  S
C1607      C1608   1.398       .  A
C1607      C1612   1.402       .  A
C1608      C1609   1.393       .  A
C1608      H1621   1.084       .  S
C1609      C1610   1.414       .  A
C1609      H1622   1.077       .  S
C1610      C1616   1.432       .  A
C1610      C1611   1.424       .  A
C1611      C1613   1.401       .  A
C1611      C1612   1.414       .  A
C1612      H1623   1.084       .  S
C1613      C1614   1.395       .  A
C1613      H1624   1.084       .  S
C1614      C1615   1.401       .  A
C1614      H1625   1.084       .  S
C1615      C1616   1.423       .  A
C1615      C1620   1.413       .  A
C1616      C1617   1.414       .  A
C1617      C1618   1.394       .  A
C1617      H1626   1.077       .  S
C1618      C1619   1.400       .  A
C1618      H1627   1.084       .  S
C1619      C1620   1.404       .  A
C1620      H1628   1.084       .  S
C1629      C1630   1.402       .  A
C1629      C1634   1.404       .  A
C1630      C1631   1.395       .  A
C1630      H1643   1.083       .  S
C1631      C1632   1.414       .  A
C1631      H1644   1.077       .  S
C1632      C1638   1.430       .  A
C1632      C1633   1.422       .  A
C1633      C1635   1.400       .  A
C1633      C1634   1.407       .  A
C1634      H1645   1.084       .  S
C1635      C1636   1.390       .  A
C1635      H1646   1.084       .  S
C1636      C1637   1.400       .  A
C1636      H1647   1.084       .  S
C1637      C1638   1.422       .  A
C1637      C1642   1.406       .  A
C1638      C1639   1.415       .  A
C1639      C1640   1.396       .  A
C1639      H1648   1.077       .  S
C1640      C1641   1.401       .  A
C1640      H1649   1.083       .  S
C1641      C1642   1.404       .  A
C1642      H1650   1.084       .  S
C1651      C1652   1.398       .  A
C1651      C1656   1.403       .  A
C1652      C1653   1.394       .  A
C1652      H1665   1.084       .  S
C1653      C1654   1.414       .  A
C1653      H1666   1.076       .  S
C1654      C1660   1.433       .  A
C1654      C1655   1.424       .  A
C1655      C1657   1.402       .  A
C1655      C1656   1.414       .  A
C1656      H1667   1.084       .  S
C1657      C1658   1.396       .  A
C1657      H1668   1.084       .  S
C1658      C1659   1.402       .  A
C1658      H1669   1.084       .  S
C1659      C1660   1.424       .  A
C1659      C1664   1.415       .  A
C1660      C1661   1.414       .  A
C1661      C1662   1.393       .  A
C1661      H1670   1.076       .  S
C1662      C1663   1.400       .  A
C1662      H1671   1.084       .  S
C1663      C1664   1.404       .  A
C1664      H1672   1.084       .  S
C1673      C1674   1.404       .  A
C1673      C1678   1.403       .  A
C1674      C1675   1.395       .  A
C1674      H1687   1.083       .  S
C1675      C1676   1.412       .  A
C1675      H1688   1.078       .  S
C1676      C1682   1.432       .  A
C1676      C1677   1.423       .  A
C1677      C1679   1.400       .  A
C1677      C1678   1.410       .  A
C1678      H1689   1.084       .  S
C1679      C1680   1.392       .  A
C1679      H1690   1.084       .  S
C1680      C1681   1.401       .  A
C1680      H1691   1.084       .  S
C1681      C1682   1.422       .  A
C1681      C1686   1.408       .  A
C1682      C1683   1.416       .  A
C1683      C1684   1.397       .  A
C1683      H1692   1.078       .  S
C1684      C1685   1.400       .  A
C1684      H1693   1.083       .  S
C1685      C1686   1.403       .  A
C1686      H1694   1.085       .  S
C1695      C1696   1.400       .  A
C1695      C1700   1.399       .  A
C1696      C1697   1.405       .  A
C1696      H1709   1.083       .  S
C1697      C1698   1.419       .  A
C1697      H1710   1.078       .  S
C1698      C1704   1.435       .  A
C1698      C1699   1.423       .  A
C1699      C1701   1.398       .  A
C1699      C1700   1.401       .  A
C1700      H1711   1.085       .  S
C1701      C1702   1.387       .  A
C1701      H1712   1.084       .  S
C1702      C1703   1.398       .  A
C1702      H1713   1.084       .  S
C1703      C1704   1.423       .  A
C1703      C1708   1.402       .  A
C1704      C1705   1.418       .  A
C1705      C1706   1.404       .  A
C1705      H1714   1.078       .  S
C1706      C1707   1.400       .  A
C1706      H1715   1.083       .  S
C1707      C1708   1.399       .  A
C1708      H1716   1.085       .  S
C1717      C1718   1.404       .  A
C1717      C1722   1.402       .  A
C1718      C1719   1.397       .  A
C1718      H1731   1.083       .  S
C1719      C1720   1.413       .  A
C1719      H1732   1.078       .  S
C1720      C1726   1.432       .  A
C1720      C1721   1.423       .  A
C1721      C1723   1.399       .  A
C1721      C1722   1.407       .  A
C1722      H1733   1.084       .  S
C1723      C1724   1.389       .  A
C1723      H1734   1.084       .  S
C1724      C1725   1.399       .  A
C1724      H1735   1.084       .  S
C1725      C1726   1.422       .  A
C1725      C1730   1.404       .  A
C1726      C1727   1.416       .  A
C1727      C1728   1.400       .  A
C1727      H1736   1.078       .  S
C1728      C1729   1.402       .  A
C1728      H1737   1.083       .  S
C1729      C1730   1.402       .  A
C1730      H1738   1.084       .  S
C1739      C1740   1.403       .  A
C1739      C1744   1.405       .  A
C1740      C1741   1.392       .  A
C1740      H1753   1.083       .  S
C1741      C1742   1.412       .  A
C1741      H1754   1.078       .  S
C1742      C1748   1.429       .  A
C1742      C1743   1.423       .  A
C1743      C1745   1.401       .  A
C1743      C1744   1.410       .  A
C1744      H1755   1.084       .  S
C1745      C1746   1.393       .  A
C1745      H1756   1.084       .  S
C1746      C1747   1.401       .  A
C1746      H1757   1.084       .  S
C1747      C1748   1.421       .  A
C1747      C1752   1.408       .  A
C1748      C1749   1.414       .  A
C1749      C1750   1.393       .  A
C1749      H1758   1.078       .  S
C1750      C1751   1.401       .  A
C1750      H1759   1.083       .  S
C1751      C1752   1.405       .  A
C1752      H1760   1.084       .  S
C1761      C1762   1.398       .  A
C1761      C1766   1.405       .  A
C1762      C1763   1.394       .  A
C1762      H1775   1.084       .  S
C1763      C1764   1.414       .  A
C1763      H1776   1.077       .  S
C1764      C1770   1.434       .  A
C1764      C1765   1.424       .  A
C1765      C1767   1.402       .  A
C1765      C1766   1.417       .  A
C1766      H1777   1.084       .  S
C1767      C1768   1.397       .  A
C1767      H1778   1.084       .  S
C1768      C1769   1.402       .  A
C1768      H1779   1.084       .  S
C1769      C1770   1.424       .  A
C1769      C1774   1.417       .  A
C1770      C1771   1.414       .  A
C1771      C1772   1.394       .  A
C1771      H1780   1.077       .  S
C1772      C1773   1.399       .  A
C1772      H1781   1.084       .  S
C1773      C1774   1.405       .  A
C1774      H1782   1.084       .  S
C1783      C1784   1.403       .  A
C1783      C1788   1.404       .  A
C1784      C1785   1.404       .  A
C1784      H1797   1.083       .  S
C1785      C1786   1.417       .  A
C1785      H1798   1.078       .  S
C1786      C1792   1.434       .  A
C1786      C1787   1.421       .  A
C1787      C1789   1.399       .  A
C1787      C1788   1.401       .  A
C1788      H1799   1.084       .  S
C1789      C1790   1.386       .  A
C1789      H1800   1.084       .  S
C1790      C1791   1.398       .  A
C1790      H1801   1.084       .  S
C1791      C1792   1.423       .  A
C1791      C1796   1.402       .  A
C1792      C1793   1.416       .  A
C1793      C1794   1.402       .  A
C1793      H1802   1.078       .  S
C1794      C1795   1.403       .  A
C1794      H1803   1.083       .  S
C1795      C1796   1.401       .  A
C1796      H1804   1.085       .  S
C1805      C1806   1.401       .  A
C1805      C1810   1.398       .  A
C1806      C1807   1.406       .  A
C1806      H1819   1.083       .  S
C1807      C1808   1.419       .  A
C1807      H1820   1.078       .  S
C1808      C1814   1.436       .  A
C1808      C1809   1.423       .  A
C1809      C1811   1.397       .  A
C1809      C1810   1.400       .  A
C1810      H1821   1.086       .  S
C1811      C1812   1.385       .  A
C1811      H1822   1.084       .  S
C1812      C1813   1.398       .  A
C1812      H1823   1.084       .  S
C1813      C1814   1.423       .  A
C1813      C1818   1.400       .  A
C1814      C1815   1.419       .  A
C1815      C1816   1.406       .  A
C1815      H1824   1.079       .  S
C1816      C1817   1.402       .  A
C1816      H1825   1.083       .  S
C1817      C1818   1.399       .  A
C1818      H1826   1.085       .  S
C1827      C1828   1.403       .  A
C1827      C1832   1.404       .  A
C1828      C1829   1.401       .  A
C1828      H1841   1.083       .  S
C1829      C1830   1.416       .  A
C1829      H1842   1.078       .  S
C1830      C1836   1.433       .  A
C1830      C1831   1.422       .  A
C1831      C1833   1.399       .  A
C1831      C1832   1.404       .  A
C1832      H1843   1.084       .  S
C1833      C1834   1.388       .  A
C1833      H1844   1.084       .  S
C1834      C1835   1.398       .  A
C1834      H1845   1.084       .  S
C1835      C1836   1.423       .  A
C1835      C1840   1.405       .  A
C1836      C1837   1.416       .  A
C1837      C1838   1.400       .  A
C1837      H1846   1.078       .  S
C1838      C1839   1.402       .  A
C1838      H1847   1.083       .  S
C1839      C1840   1.401       .  A
C1840      H1848   1.085       .  S
C1849      C1850   1.403       .  A
C1849      C1854   1.404       .  A
C1850      C1851   1.396       .  A
C1850      H1863   1.083       .  S
C1851      C1852   1.414       .  A
C1851      H1864   1.077       .  S
C1852      C1858   1.431       .  A
C1852      C1853   1.423       .  A
C1853      C1855   1.400       .  A
C1853      C1854   1.407       .  A
C1854      H1865   1.084       .  S
C1855      C1856   1.390       .  A
C1855      H1866   1.084       .  S
C1856      C1857   1.400       .  A
C1856      H1867   1.084       .  S
C1857      C1858   1.422       .  A
C1857      C1862   1.406       .  A
C1858      C1859   1.415       .  A
C1859      C1860   1.397       .  A
C1859      H1868   1.077       .  S
C1860      C1861   1.402       .  A
C1860      H1869   1.083       .  S
C1861      C1862   1.404       .  A
C1862      H1870   1.084       .  S
C1871      C1872   1.400       .  A
C1871      C1876   1.403       .  A
C1872      C1873   1.394       .  A
C1872      H1885   1.084       .  S
C1873      C1874   1.414       .  A
C1873      H1886   1.077       .  S
C1874      C1880   1.433       .  A
C1874      C1875   1.424       .  A
C1875      C1877   1.401       .  A
C1875      C1876   1.414       .  A
C1876      H1887   1.084       .  S
C1877      C1878   1.395       .  A
C1877      H1888   1.084       .  S
C1878      C1879   1.401       .  A
C1878      H1889   1.084       .  S
C1879      C1880   1.423       .  A
C1879      C1884   1.413       .  A
C1880      C1881   1.415       .  A
C1881      C1882   1.395       .  A
C1881      H1890   1.077       .  S
C1882      C1883   1.399       .  A
C1882      H1891   1.084       .  S
C1883      C1884   1.403       .  A
C1884      H1892   1.084       .  S
C1893      C1894   1.404       .  A
C1893      C1898   1.403       .  A
C1894      C1895   1.400       .  A
C1894      H1907   1.083       .  S
C1895      C1896   1.414       .  A
C1895      H1908   1.078       .  S
C1896      C1902   1.434       .  A
C1896      C1897   1.424       .  A
C1897      C1899   1.399       .  A
C1897      C1898   1.407       .  A
C1898      H1909   1.085       .  S
C1899      C1900   1.389       .  A
C1899      H1910   1.084       .  S
C1900      C1901   1.400       .  A
C1900      H1911   1.084       .  S
C1901      C1902   1.421       .  A
C1901      C1906   1.404       .  A
C1902      C1903   1.418       .  A
C1903      C1904   1.403       .  A
C1903      H1912   1.078       .  S
C1904      C1905   1.402       .  A
C1904      H1913   1.083       .  S
C1905      C1906   1.406       .  A
C1906      H1914   1.085       .  S
C1915      C1916   1.403       .  A
C1915      C1920   1.405       .  A
C1916      C1917   1.393       .  A
C1916      H1929   1.083       .  S
C1917      C1918   1.412       .  A
C1917      H1930   1.078       .  S
C1918      C1924   1.432       .  A
C1918      C1919   1.423       .  A
C1919      C1921   1.401       .  A
C1919      C1920   1.412       .  A
C1920      H1931   1.084       .  S
C1921      C1922   1.394       .  A
C1921      H1932   1.084       .  S
C1922      C1923   1.401       .  A
C1922      H1933   1.084       .  S
C1923      C1924   1.422       .  A
C1923      C1928   1.410       .  A
C1924      C1925   1.415       .  A
C1925      C1926   1.395       .  A
C1925      H1934   1.078       .  S
C1926      C1927   1.399       .  A
C1926      H1935   1.084       .  S
C1927      C1928   1.405       .  A
C1928      H1936   1.085       .  S
C1937      C1938   1.401       .  A
C1937      C1942   1.399       .  A
C1938      C1939   1.405       .  A
C1938      H1951   1.083       .  S
C1939      C1940   1.418       .  A
C1939      H1952   1.078       .  S
C1940      C1946   1.436       .  A
C1940      C1941   1.423       .  A
C1941      C1943   1.398       .  A
C1941      C1942   1.403       .  A
C1942      H1953   1.085       .  S
C1943      C1944   1.386       .  A
C1943      H1954   1.084       .  S
C1944      C1945   1.398       .  A
C1944      H1955   1.084       .  S
C1945      C1946   1.423       .  A
C1945      C1950   1.402       .  A
C1946      C1947   1.419       .  A
C1947      C1948   1.406       .  A
C1947      H1956   1.078       .  S
C1948      C1949   1.401       .  A
C1948      H1957   1.083       .  S
C1949      C1950   1.399       .  A
C1950      H1958   1.085       .  S
C1959      C1960   1.403       .  A
C1959      C1964   1.404       .  A
C1960      C1961   1.402       .  A
C1960      H1973   1.083       .  S
C1961      C1962   1.417       .  A
C1961      H1974   1.079       .  S
C1962      C1968   1.434       .  A
C1962      C1963   1.422       .  A
C1963      C1965   1.399       .  A
C1963      C1964   1.404       .  A
C1964      H1975   1.085       .  S
C1965      C1966   1.388       .  A
C1965      H1976   1.084       .  S
C1966      C1967   1.398       .  A
C1966      H1977   1.084       .  S
C1967      C1968   1.423       .  A
C1967      C1972   1.405       .  A
C1968      C1969   1.416       .  A
C1969      C1970   1.401       .  A
C1969      H1978   1.079       .  S
C1970      C1971   1.403       .  A
C1970      H1979   1.083       .  S
C1971      C1972   1.401       .  A
C1972      H1980   1.085       .  S
C1981      C1982   1.404       .  A
C1981      C1986   1.402       .  A
C1982      C1983   1.402       .  A
C1982      H1995   1.083       .  S
C1983      C1984   1.415       .  A
C1983      H1996   1.078       .  S
C1984      C1990   1.435       .  A
C1984      C1985   1.423       .  A
C1985      C1987   1.398       .  A
C1985      C1986   1.405       .  A
C1986      H1997   1.084       .  S
C1987      C1988   1.388       .  A
C1987      H1998   1.084       .  S
C1988      C1989   1.399       .  A
C1988      H1999   1.084       .  S
C1989      C1990   1.421       .  A
C1989      C1994   1.402       .  A
C1990      C1991   1.418       .  A
C1991      C1992   1.404       .  A
C1991      H2000   1.078       .  S
C1992      C1993   1.403       .  A
C1992      H2001   1.083       .  S
C1993      C1994   1.404       .  A
C1994      H2002   1.084       .  S
C2003      C2004   1.401       .  A
C2003      C2008   1.404       .  A
C2004      C2005   1.396       .  A
C2004      H2017   1.083       .  S
C2005      C2006   1.415       .  A
C2005      H2018   1.076       .  S
C2006      C2012   1.429       .  A
C2006      C2007   1.421       .  A
C2007      C2009   1.400       .  A
C2007      C2008   1.404       .  A
C2008      H2019   1.084       .  S
C2009      C2010   1.389       .  A
C2009      H2020   1.084       .  S
C2010      C2011   1.399       .  A
C2010      H2021   1.084       .  S
C2011      C2012   1.423       .  A
C2011      C2016   1.405       .  A
C2012      C2013   1.413       .  A
C2013      C2014   1.394       .  A
C2013      H2022   1.076       .  S
C2014      C2015   1.402       .  A
C2014      H2023   1.083       .  S
C2015      C2016   1.402       .  A
C2016      H2024   1.084       .  S
C2025      C2026   1.400       .  A
C2025      C2030   1.399       .  A
C2026      C2027   1.406       .  A
C2026      H2039   1.083       .  S
C2027      C2028   1.419       .  A
C2027      H2040   1.078       .  S
C2028      C2034   1.435       .  A
C2028      C2029   1.423       .  A
C2029      C2031   1.398       .  A
C2029      C2030   1.400       .  A
C2030      H2041   1.085       .  S
C2031      C2032   1.386       .  A
C2031      H2042   1.084       .  S
C2032      C2033   1.398       .  A
C2032      H2043   1.084       .  S
C2033      C2034   1.423       .  A
C2033      C2038   1.401       .  A
C2034      C2035   1.419       .  A
C2035      C2036   1.406       .  A
C2035      H2044   1.078       .  S
C2036      C2037   1.401       .  A
C2036      H2045   1.083       .  S
C2037      C2038   1.401       .  A
C2038      H2046   1.085       .  S
C2047      C2048   1.398       .  A
C2047      C2052   1.397       .  A
C2048      C2049   1.403       .  A
C2048      H2061   1.083       .  S
C2049      C2050   1.419       .  A
C2049      H2062   1.078       .  S
C2050      C2056   1.433       .  A
C2050      C2051   1.423       .  A
C2051      C2053   1.398       .  A
C2051      C2052   1.401       .  A
C2052      H2063   1.086       .  S
C2053      C2054   1.386       .  A
C2053      H2064   1.084       .  S
C2054      C2055   1.398       .  A
C2054      H2065   1.084       .  S
C2055      C2056   1.424       .  A
C2055      C2060   1.402       .  A
C2056      C2057   1.418       .  A
C2057      C2058   1.402       .  A
C2057      H2066   1.078       .  S
C2058      C2059   1.398       .  A
C2058      H2067   1.083       .  S
C2059      C2060   1.396       .  A
C2060      H2068   1.085       .  S
C2069      C2070   1.398       .  A
C2069      C2074   1.399       .  A
C2070      C2071   1.393       .  A
C2070      H2083   1.084       .  S
C2071      C2072   1.414       .  A
C2071      H2084   1.078       .  S
C2072      C2078   1.426       .  A
C2072      C2073   1.423       .  A
C2073      C2075   1.400       .  A
C2073      C2074   1.405       .  A
C2074      H2085   1.085       .  S
C2075      C2076   1.391       .  A
C2075      H2086   1.084       .  S
C2076      C2077   1.400       .  A
C2076      H2087   1.084       .  S
C2077      C2078   1.421       .  A
C2077      C2082   1.404       .  A
C2078      C2079   1.414       .  A
C2079      C2080   1.394       .  A
C2079      H2088   1.078       .  S
C2080      C2081   1.398       .  A
C2080      H2089   1.084       .  S
C2081      C2082   1.401       .  A
C2082      H2090   1.085       .  S
C2091      C2092   1.401       .  A
C2091      C2096   1.400       .  A
C2092      C2093   1.407       .  A
C2092      H2105   1.083       .  S
C2093      C2094   1.420       .  A
C2093      H2106   1.078       .  S
C2094      C2100   1.436       .  A
C2094      C2095   1.422       .  A
C2095      C2097   1.398       .  A
C2095      C2096   1.400       .  A
C2096      H2107   1.085       .  S
C2097      C2098   1.386       .  A
C2097      H2108   1.084       .  S
C2098      C2099   1.398       .  A
C2098      H2109   1.084       .  S
C2099      C2100   1.423       .  A
C2099      C2104   1.402       .  A
C2100      C2101   1.418       .  A
C2101      C2102   1.406       .  A
C2101      H2110   1.078       .  S
C2102      C2103   1.402       .  A
C2102      H2111   1.083       .  S
C2103      C2104   1.400       .  A
C2104      H2112   1.085       .  S
C2113      C2114   1.401       .  A
C2113      C2118   1.405       .  A
C2114      C2115   1.395       .  A
C2114      H2127   1.083       .  S
C2115      C2116   1.414       .  A
C2115      H2128   1.077       .  S
C2116      C2122   1.430   1_556  A
C2116      C2117   1.422       .  A
C2117      C2119   1.400       .  A
C2117      C2118   1.407       .  A
C2118      H2129   1.084       .  S
C2119      C2120   1.391   1_556  A
C2119      H2130   1.084       .  S
C2120      C2121   1.400       .  A
C2120      H2131   1.084       .  S
C2121      C2122   1.422       .  A
C2121      C2126   1.407       .  A
C2122      C2123   1.414       .  A
C2123      C2124   1.395       .  A
C2123      H2132   1.077       .  S
C2124      C2125   1.402       .  A
C2124      H2133   1.083       .  S
C2125      C2126   1.405       .  A
C2126      H2134   1.084       .  S
C2135      C2136   1.398       .  A
C2135      C2140   1.397       .  A
C2136      C2137   1.401       .  A
C2136      H2149   1.084       .  S
C2137      C2138   1.417       .  A
C2137      H2150   1.078       .  S
C2138      C2144   1.434       .  A
C2138      C2139   1.424       .  A
C2139      C2141   1.398       .  A
C2139      C2140   1.404       .  A
C2140      H2151   1.085       .  S
C2141      C2142   1.388       .  A
C2141      H2152   1.084       .  S
C2142      C2143   1.399       .  A
C2142      H2153   1.084       .  S
C2143      C2144   1.423       .  A
C2143      C2148   1.404       .  A
C2144      C2145   1.418       .  A
C2145      C2146   1.402       .  A
C2145      H2154   1.078       .  S
C2146      C2147   1.399       .  A
C2146      H2155   1.083       .  S
C2147      C2148   1.399       .  A
C2148      H2156   1.085       .  S
C2157      C2158   1.397       .  A
C2157      C2162   1.400       .  A
C2158      C2159   1.397       .  A
C2158      H2171   1.083       .  S
C2159      C2160   1.417       .  A
C2159      H2172   1.077       .  S
C2160      C2166   1.428       .  A
C2160      C2161   1.421       .  A
C2161      C2163   1.399       .  A
C2161      C2162   1.401       .  A
C2162      H2173   1.085       .  S
C2163      C2164   1.388       .  A
C2163      H2174   1.084       .  S
C2164      C2165   1.399       .  A
C2164      H2175   1.084       .  S
C2165      C2166   1.425       .  A
C2165      C2170   1.403       .  A
C2166      C2167   1.415       .  A
C2167      C2168   1.394       .  A
C2167      H2176   1.077       .  S
C2168      C2169   1.396       .  A
C2168      H2177   1.084       .  S
C2169      C2170   1.396       .  A
C2170      H2178   1.085       .  S
C2179      C2180   1.401       .  A
C2179      C2184   1.400       .  A
C2180      C2181   1.406       .  A
C2180      H2193   1.083       .  S
C2181      C2182   1.419       .  A
C2181      H2194   1.078       .  S
C2182      C2188   1.436       .  A
C2182      C2183   1.423       .  A
C2183      C2185   1.398       .  A
C2183      C2184   1.402       .  A
C2184      H2195   1.085       .  S
C2185      C2186   1.386       .  A
C2185      H2196   1.084       .  S
C2186      C2187   1.398       .  A
C2186      H2197   1.084       .  S
C2187      C2188   1.423       .  A
C2187      C2192   1.402       .  A
C2188      C2189   1.418       .  A
C2189      C2190   1.406       .  A
C2189      H2198   1.078       .  S
C2190      C2191   1.401       .  A
C2190      H2199   1.083       .  S
C2191      C2192   1.400       .  A
C2192      H2200   1.085       .  S
C2201      C2202   1.397       .  A
C2201      C2206   1.398       .  A
C2202      C2203   1.394       .  A
C2202      H2215   1.084       .  S
C2203      C2204   1.415       .  A
C2203      H2216   1.077       .  S
C2204      C2210   1.424       .  A
C2204      C2205   1.421       .  A
C2205      C2207   1.398       .  A
C2205      C2206   1.399       .  A
C2206      H2217   1.085       .  S
C2207      C2208   1.388       .  A
C2207      H2218   1.084       .  S
C2208      C2209   1.399       .  A
C2208      H2219   1.084       .  S
C2209      C2210   1.424       .  A
C2209      C2214   1.401       .  A
C2210      C2211   1.414       .  A
C2211      C2212   1.392       .  A
C2211      H2220   1.077       .  S
C2212      C2213   1.395       .  A
C2212      H2221   1.084       .  S
C2213      C2214   1.395       .  A
C2214      H2222   1.085       .  S
C2223      C2224   1.398       .  A
C2223      C2228   1.400       .  A
C2224      C2225   1.401       .  A
C2224      H2237   1.083       .  S
C2225      C2226   1.418       .  A
C2225      H2238   1.078       .  S
C2226      C2232   1.433       .  A
C2226      C2227   1.423       .  A
C2227      C2229   1.399       .  A
C2227      C2228   1.404       .  A
C2228      H2239   1.086       .  S
C2229      C2230   1.389       .  A
C2229      H2240   1.084       .  S
C2230      C2231   1.399       .  A
C2230      H2241   1.084       .  S
C2231      C2232   1.424       .  A
C2231      C2236   1.405       .  A
C2232      C2233   1.417       .  A
C2233      C2234   1.400       .  A
C2233      H2242   1.078       .  S
C2234      C2235   1.397       .  A
C2234      H2243   1.084       .  S
C2235      C2236   1.398       .  A
C2236      H2244   1.085       .  S
C2245      C2246   1.404       .  A
C2245      C2250   1.405       .  A
C2246      C2247   1.394       .  A
C2246      H2259   1.083       .  S
C2247      C2248   1.412       .  A
C2247      H2260   1.076       .  S
C2248      C2254   1.431       .  A
C2248      C2249   1.423       .  A
C2249      C2251   1.400       .  A
C2249      C2250   1.411       .  A
C2250      H2261   1.084       .  S
C2251      C2252   1.393       .  A
C2251      H2262   1.084       .  S
C2252      C2253   1.401       .  A
C2252      H2263   1.084       .  S
C2253      C2254   1.422       .  A
C2253      C2258   1.408       .  A
C2254      C2255   1.416       .  A
C2255      C2256   1.397       .  A
C2255      H2264   1.076       .  S
C2256      C2257   1.400       .  A
C2256      H2265   1.084       .  S
C2257      C2258   1.403       .  A
C2258      H2266   1.084       .  S
C2267      C2268   1.402       .  A
C2267      C2272   1.400       .  A
C2268      C2269   1.406       .  A
C2268      H2281   1.083       .  S
C2269      C2270   1.418       .  A
C2269      H2282   1.078       .  S
C2270      C2276   1.436       .  A
C2270      C2271   1.423       .  A
C2271      C2273   1.398       .  A
C2271      C2272   1.401       .  A
C2272      H2283   1.085       .  S
C2273      C2274   1.386       .  A
C2273      H2284   1.084       .  S
C2274      C2275   1.398       .  A
C2274      H2285   1.084       .  S
C2275      C2276   1.422       .  A
C2275      C2280   1.401       .  A
C2276      C2277   1.419       .  A
C2277      C2278   1.407       .  A
C2277      H2286   1.078       .  S
C2278      C2279   1.401       .  A
C2278      H2287   1.083       .  S
C2279      C2280   1.400       .  A
C2280      H2288   1.085       .  S
C2289      C2290   1.403       .  A
C2289      C2294   1.405       .  A
C2290      C2291   1.402       .  A
C2290      H2303   1.083       .  S
C2291      C2292   1.417       .  A
C2291      H2304   1.078       .  S
C2292      C2298   1.434       .  A
C2292      C2293   1.422       .  A
C2293      C2295   1.400       .  A
C2293      C2294   1.406       .  A
C2294      H2305   1.085       .  S
C2295      C2296   1.390       .  A
C2295      H2306   1.084       .  S
C2296      C2297   1.399       .  A
C2296      H2307   1.084       .  S
C2297      C2298   1.423       .  A
C2297      C2302   1.408       .  A
C2298      C2299   1.415       .  A
C2299      C2300   1.400       .  A
C2299      H2308   1.078       .  S
C2300      C2301   1.403       .  A
C2300      H2309   1.083       .  S
C2301      C2302   1.402       .  A
C2302      H2310   1.085       .  S
C2311      C2312   1.403       .  A
C2311      C2316   1.404       .  A
C2312      C2313   1.393       .  A
C2312      H2325   1.083       .  S
C2313      C2314   1.413       .  A
C2313      H2326   1.078       .  S
C2314      C2320   1.430   1_556  A
C2314      C2315   1.423       .  A
C2315      C2317   1.400       .  A
C2315      C2316   1.408       .  A
C2316      H2327   1.084       .  S
C2317      C2318   1.392   1_556  A
C2317      H2328   1.084       .  S
C2318      C2319   1.401       .  A
C2318      H2329   1.084       .  S
C2319      C2320   1.421       .  A
C2319      C2324   1.407       .  A
C2320      C2321   1.414       .  A
C2321      C2322   1.395       .  A
C2321      H2330   1.078       .  S
C2322      C2323   1.401       .  A
C2322      H2331   1.083       .  S
C2323      C2324   1.405       .  A
C2324      H2332   1.084       .  S
C2333      C2334   1.398       .  A
C2333      C2338   1.399       .  A
C2334      C2335   1.393       .  A
C2334      H2347   1.084       .  S
C2335      C2336   1.414       .  A
C2335      H2348   1.078       .  S
C2336      C2342   1.426       .  A
C2336      C2337   1.424       .  A
C2337      C2339   1.400       .  A
C2337      C2338   1.405       .  A
C2338      H2349   1.085       .  S
C2339      C2340   1.391       .  A
C2339      H2350   1.084       .  S
C2340      C2341   1.400       .  A
C2340      H2351   1.084       .  S
C2341      C2342   1.421       .  A
C2341      C2346   1.403       .  A
C2342      C2343   1.415       .  A
C2343      C2344   1.396       .  A
C2343      H2352   1.078       .  S
C2344      C2345   1.398       .  A
C2344      H2353   1.083       .  S
C2345      C2346   1.402       .  A
C2346      H2354   1.085       .  S
C2355      C2356   1.399       .  A
C2355      C2360   1.398       .  A
C2356      C2357   1.398       .  A
C2356      H2369   1.084       .  S
C2357      C2358   1.415       .  A
C2357      H2370   1.078       .  S
C2358      C2364   1.431       .  A
C2358      C2359   1.424       .  A
C2359      C2361   1.399       .  A
C2359      C2360   1.406       .  A
C2360      H2371   1.085       .  S
C2361      C2362   1.390       .  A
C2361      H2372   1.084       .  S
C2362      C2363   1.399       .  A
C2362      H2373   1.084       .  S
C2363      C2364   1.423       .  A
C2363      C2368   1.405       .  A
C2364      C2365   1.417       .  A
C2365      C2366   1.399       .  A
C2365      H2374   1.078       .  S
C2366      C2367   1.397       .  A
C2366      H2375   1.083       .  S
C2367      C2368   1.399       .  A
C2368      H2376   1.085       .  S
C2377      C2378   1.399       .  A
C2377      C2382   1.402       .  A
C2378      C2379   1.392       .  A
C2378      H2391   1.084       .  S
C2379      C2380   1.414       .  A
C2379      H2392   1.077       .  S
C2380      C2386   1.431       .  A
C2380      C2381   1.424       .  A
C2381      C2383   1.401       .  A
C2381      C2382   1.414       .  A
C2382      H2393   1.084       .  S
C2383      C2384   1.395       .  A
C2383      H2394   1.084       .  S
C2384      C2385   1.401       .  A
C2384      H2395   1.084       .  S
C2385      C2386   1.424       .  A
C2385      C2390   1.414       .  A
C2386      C2387   1.413       .  A
C2387      C2388   1.393       .  A
C2387      H2396   1.077       .  S
C2388      C2389   1.400       .  A
C2388      H2397   1.084       .  S
C2389      C2390   1.403       .  A
C2390      H2398   1.084       .  S
C2399      C2400   1.397       .  A
C2399      C2404   1.396       .  A
C2400      C2401   1.395       .  A
C2400      H2413   1.084       .  S
C2401      C2402   1.414       .  A
C2401      H2414   1.078       .  S
C2402      C2408   1.428       .  A
C2402      C2403   1.425       .  A
C2403      C2405   1.399       .  A
C2403      C2404   1.404       .  A
C2404      H2415   1.085       .  S
C2405      C2406   1.389       .  A
C2405      H2416   1.084       .  S
C2406      C2407   1.399       .  A
C2406      H2417   1.084       .  S
C2407      C2408   1.421       .  A
C2407      C2412   1.401       .  A
C2408      C2409   1.417       .  A
C2409      C2410   1.398       .  A
C2409      H2418   1.078       .  S
C2410      C2411   1.397       .  A
C2410      H2419   1.083       .  S
C2411      C2412   1.400       .  A
C2412      H2420   1.085       .  S
C2421      C2422   1.400       .  A
C2421      C2426   1.400       .  A
C2422      C2423   1.405       .  A
C2422      H2435   1.083       .  S
C2423      C2424   1.419       .  A
C2423      H2436   1.078       .  S
C2424      C2430   1.435       .  A
C2424      C2425   1.422       .  A
C2425      C2427   1.399       .  A
C2425      C2426   1.402       .  A
C2426      H2437   1.085       .  S
C2427      C2428   1.387       .  A
C2427      H2438   1.084       .  S
C2428      C2429   1.398       .  A
C2428      H2439   1.084       .  S
C2429      C2430   1.424       .  A
C2429      C2434   1.404       .  A
C2430      C2431   1.418       .  A
C2431      C2432   1.404       .  A
C2431      H2440   1.078       .  S
C2432      C2433   1.399       .  A
C2432      H2441   1.083       .  S
C2433      C2434   1.398       .  A
C2434      H2442   1.085       .  S
C2443      C2444   1.403       .  A
C2443      C2448   1.404       .  A
C2444      C2445   1.404       .  A
C2444      H2457   1.083       .  S
C2445      C2446   1.418       .  A
C2445      H2458   1.078       .  S
C2446      C2452   1.434       .  A
C2446      C2447   1.421       .  A
C2447      C2449   1.399       .  A
C2447      C2448   1.401       .  A
C2448      H2459   1.085       .  S
C2449      C2450   1.386       .  A
C2449      H2460   1.084       .  S
C2450      C2451   1.398       .  A
C2450      H2461   1.084       .  S
C2451      C2452   1.424       .  A
C2451      C2456   1.404       .  A
C2452      C2453   1.415       .  A
C2453      C2454   1.401       .  A
C2453      H2462   1.078       .  S
C2454      C2455   1.404       .  A
C2454      H2463   1.083       .  S
C2455      C2456   1.401       .  A
C2456      H2464   1.085       .  S
C2465      C2466   1.400       .  A
C2465      C2470   1.399       .  A
C2466      C2467   1.407       .  A
C2466      H2479   1.083       .  S
C2467      C2468   1.419       .  A
C2467      H2480   1.078       .  S
C2468      C2474   1.436       .  A
C2468      C2469   1.423       .  A
C2469      C2471   1.398       .  A
C2469      C2470   1.400       .  A
C2470      H2481   1.085       .  S
C2471      C2472   1.385       .  A
C2471      H2482   1.084       .  S
C2472      C2473   1.398       .  A
C2472      H2483   1.084       .  S
C2473      C2474   1.423       .  A
C2473      C2478   1.399       .  A
C2474      C2475   1.420       .  A
C2475      C2476   1.407       .  A
C2475      H2484   1.078       .  S
C2476      C2477   1.400       .  A
C2476      H2485   1.083       .  S
C2477      C2478   1.398       .  A
C2478      H2486   1.085       .  S
C2487      C2488   1.402       .  A
C2487      C2492   1.404       .  A
C2488      C2489   1.393       .  A
C2488      H2501   1.084       .  S
C2489      C2490   1.412       .  A
C2489      H2502   1.076       .  S
C2490      C2496   1.431       .  A
C2490      C2491   1.424       .  A
C2491      C2493   1.400       .  A
C2491      C2492   1.412       .  A
C2492      H2503   1.084       .  S
C2493      C2494   1.394       .  A
C2493      H2504   1.084       .  S
C2494      C2495   1.402       .  A
C2494      H2505   1.084       .  S
C2495      C2496   1.421       .  A
C2495      C2500   1.409       .  A
C2496      C2497   1.416       .  A
C2497      C2498   1.396       .  A
C2497      H2506   1.076       .  S
C2498      C2499   1.400       .  A
C2498      H2507   1.083       .  S
C2499      C2500   1.406       .  A
C2500      H2508   1.084       .  S
C2509      C2510   1.403       .  A
C2509      C2514   1.404       .  A
C2510      C2511   1.399       .  A
C2510      H2523   1.083       .  S
C2511      C2512   1.415       .  A
C2511      H2524   1.077       .  S
C2512      C2518   1.433   1_554  A
C2512      C2513   1.422       .  A
C2513      C2515   1.399       .  A
C2513      C2514   1.405       .  A
C2514      H2525   1.084       .  S
C2515      C2516   1.389   1_554  A
C2515      H2526   1.084       .  S
C2516      C2517   1.399       .  A
C2516      H2527   1.084       .  S
C2517      C2518   1.422       .  A
C2517      C2522   1.405       .  A
C2518      C2519   1.416       .  A
C2519      C2520   1.400       .  A
C2519      H2528   1.077       .  S
C2520      C2521   1.402       .  A
C2520      H2529   1.083       .  S
C2521      C2522   1.404       .  A
C2522      H2530   1.084       .  S
C2531      C2532   1.396       .  A
C2531      C2536   1.400       .  A
C2532      C2533   1.396       .  A
C2532      H2545   1.084       .  S
C2533      C2534   1.416       .  A
C2533      H2546   1.078       .  S
C2534      C2540   1.427       .  A
C2534      C2535   1.421       .  A
C2535      C2537   1.400       .  A
C2535      C2536   1.403       .  A
C2536      H2547   1.085       .  S
C2537      C2538   1.391       .  A
C2537      H2548   1.084       .  S
C2538      C2539   1.400       .  A
C2538      H2549   1.084       .  S
C2539      C2540   1.423       .  A
C2539      C2544   1.405       .  A
C2540      C2541   1.414       .  A
C2541      C2542   1.395       .  A
C2541      H2550   1.078       .  S
C2542      C2543   1.399       .  A
C2542      H2551   1.084       .  S
C2543      C2544   1.400       .  A
C2544      H2552   1.085       .  S
C2553      C2554   1.400       .  A
C2553      C2558   1.400       .  A
C2554      C2555   1.398       .  A
C2554      H2567   1.084       .  S
C2555      C2556   1.415       .  A
C2555      H2568   1.078       .  S
C2556      C2562   1.432       .  A
C2556      C2557   1.424       .  A
C2557      C2559   1.400       .  A
C2557      C2558   1.408       .  A
C2558      H2569   1.085       .  S
C2559      C2560   1.391       .  A
C2559      H2570   1.084       .  S
C2560      C2561   1.400       .  A
C2560      H2571   1.084       .  S
C2561      C2562   1.422       .  A
C2561      C2566   1.407       .  A
C2562      C2563   1.416       .  A
C2563      C2564   1.399       .  A
C2563      H2572   1.078       .  S
C2564      C2565   1.398       .  A
C2564      H2573   1.084       .  S
C2565      C2566   1.400       .  A
C2566      H2574   1.085       .  S
C2575      C2576   1.402       .  A
C2575      C2580   1.401       .  A
C2576      C2577   1.407       .  A
C2576      H2589   1.083       .  S
C2577      C2578   1.419       .  A
C2577      H2590   1.078       .  S
C2578      C2584   1.436       .  A
C2578      C2579   1.422       .  A
C2579      C2581   1.398       .  A
C2579      C2580   1.399       .  A
C2580      H2591   1.085       .  S
C2581      C2582   1.384       .  A
C2581      H2592   1.084       .  S
C2582      C2583   1.397       .  A
C2582      H2593   1.084       .  S
C2583      C2584   1.423       .  A
C2583      C2588   1.399       .  A
C2584      C2585   1.419       .  A
C2585      C2586   1.407       .  A
C2585      H2594   1.078       .  S
C2586      C2587   1.401       .  A
C2586      H2595   1.083       .  S
C2587      C2588   1.399       .  A
C2588      H2596   1.085       .  S
C2597      C2598   1.399       .  A
C2597      C2602   1.396       .  A
C2598      C2599   1.403       .  A
C2598      H2611   1.083       .  S
C2599      C2600   1.418       .  A
C2599      H2612   1.078       .  S
C2600      C2606   1.435       .  A
C2600      C2601   1.424       .  A
C2601      C2603   1.398       .  A
C2601      C2602   1.403       .  A
C2602      H2613   1.085       .  S
C2603      C2604   1.386       .  A
C2603      H2614   1.084       .  S
C2604      C2605   1.398       .  A
C2604      H2615   1.084       .  S
C2605      C2606   1.423       .  A
C2605      C2610   1.401       .  A
C2606      C2607   1.419       .  A
C2607      C2608   1.405       .  A
C2607      H2616   1.078       .  S
C2608      C2609   1.400       .  A
C2608      H2617   1.083       .  S
C2609      C2610   1.399       .  A
C2610      H2618   1.085       .  S
C2619      C2620   1.397       .  A
C2619      C2624   1.398       .  A
C2620      C2621   1.392       .  A
C2620      H2633   1.084       .  S
C2621      C2622   1.414       .  A
C2621      H2634   1.077       .  S
C2622      C2628   1.425       .  A
C2622      C2623   1.424       .  A
C2623      C2625   1.400       .  A
C2623      C2624   1.404       .  A
C2624      H2635   1.085       .  S
C2625      C2626   1.390       .  A
C2625      H2636   1.084       .  S
C2626      C2627   1.400       .  A
C2626      H2637   1.084       .  S
C2627      C2628   1.420       .  A
C2627      C2632   1.402       .  A
C2628      C2629   1.415       .  A
C2629      C2630   1.394       .  A
C2629      H2638   1.078       .  S
C2630      C2631   1.397       .  A
C2630      H2639   1.083       .  S
C2631      C2632   1.402       .  A
C2632      H2640   1.085       .  S
C2641      C2642   1.404       .  A
C2641      C2646   1.403       .  A
C2642      C2643   1.401       .  A
C2642      H2655   1.083       .  S
C2643      C2644   1.415       .  A
C2643      H2656   1.077       .  S
C2644      C2650   1.435       .  A
C2644      C2645   1.424       .  A
C2645      C2647   1.399       .  A
C2645      C2646   1.407       .  A
C2646      H2657   1.084       .  S
C2647      C2648   1.389       .  A
C2647      H2658   1.084       .  S
C2648      C2649   1.400       .  A
C2648      H2659   1.084       .  S
C2649      C2650   1.421       .  A
C2649      C2654   1.403       .  A
C2650      C2651   1.418       .  A
C2651      C2652   1.404       .  A
C2651      H2660   1.077       .  S
C2652      C2653   1.402       .  A
C2652      H2661   1.083       .  S
C2653      C2654   1.406       .  A
C2654      H2662   1.084       .  S
C2663      C2664   1.399       .  A
C2663      C2668   1.405       .  A
C2664      C2665   1.398       .  A
C2664      H2677   1.083       .  S
C2665      C2666   1.416       .  A
C2665      H2678   1.077       .  S
C2666      C2672   1.432       .  A
C2666      C2667   1.422       .  A
C2667      C2669   1.401       .  A
C2667      C2668   1.409       .  A
C2668      H2679   1.085       .  S
C2669      C2670   1.393       .  A
C2669      H2680   1.084       .  S
C2670      C2671   1.400       .  A
C2670      H2681   1.084       .  S
C2671      C2672   1.423       .  A
C2671      C2676   1.412       .  A
C2672      C2673   1.412       .  A
C2673      C2674   1.395       .  A
C2673      H2682   1.077       .  S
C2674      C2675   1.404       .  A
C2674      H2683   1.083       .  S
C2675      C2676   1.405       .  A
C2676      H2684   1.084       .  S
C2685      C2686   1.399       .  A
C2685      C2690   1.403       .  A
C2686      C2687   1.392       .  A
C2686      H2699   1.084       .  S
C2687      C2688   1.413       .  A
C2687      H2700   1.077       .  S
C2688      C2694   1.432       .  A
C2688      C2689   1.424       .  A
C2689      C2691   1.401       .  A
C2689      C2690   1.415       .  A
C2690      H2701   1.084       .  S
C2691      C2692   1.395       .  A
C2691      H2702   1.084       .  S
C2692      C2693   1.401       .  A
C2692      H2703   1.084       .  S
C2693      C2694   1.423       .  A
C2693      C2698   1.413       .  A
C2694      C2695   1.415       .  A
C2695      C2696   1.393       .  A
C2695      H2704   1.077       .  S
C2696      C2697   1.398       .  A
C2696      H2705   1.084       .  S
C2697      C2698   1.402       .  A
C2698      H2706   1.084       .  S
C2707      C2708   1.406       .  A
C2707      C2712   1.404       .  A
C2708      C2709   1.396       .  A
C2708      H2721   1.083       .  S
C2709      C2710   1.412       .  A
C2709      H2722   1.077       .  S
C2710      C2716   1.434       .  A
C2710      C2711   1.424       .  A
C2711      C2713   1.400       .  A
C2711      C2712   1.413       .  A
C2712      H2723   1.084       .  S
C2713      C2714   1.392       .  A
C2713      H2724   1.084       .  S
C2714      C2715   1.401       .  A
C2714      H2725   1.084       .  S
C2715      C2716   1.421       .  A
C2715      C2720   1.408       .  A
C2716      C2717   1.417       .  A
C2717      C2718   1.400       .  A
C2717      H2726   1.077       .  S
C2718      C2719   1.402       .  A
C2718      H2727   1.083       .  S
C2719      C2720   1.406       .  A
C2720      H2728   1.084       .  S
C2729      C2730   1.403       .  A
C2729      C2734   1.401       .  A
C2730      C2731   1.400       .  A
C2730      H2743   1.083       .  S
C2731      C2732   1.415       .  A
C2731      H2744   1.078       .  S
C2732      C2738   1.434       .  A
C2732      C2733   1.424       .  A
C2733      C2735   1.398       .  A
C2733      C2734   1.405       .  A
C2734      H2745   1.085       .  S
C2735      C2736   1.388       .  A
C2735      H2746   1.084       .  S
C2736      C2737   1.399       .  A
C2736      H2747   1.084       .  S
C2737      C2738   1.421       .  A
C2737      C2742   1.402       .  A
C2738      C2739   1.418       .  A
C2739      C2740   1.404       .  A
C2739      H2748   1.078       .  S
C2740      C2741   1.403       .  A
C2740      H2749   1.083       .  S
C2741      C2742   1.405       .  A
C2742      H2750   1.084       .  S
C2751      C2752   1.402       .  A
C2751      C2756   1.405       .  A
C2752      C2753   1.395       .  A
C2752      H2765   1.083       .  S
C2753      C2754   1.415       .  A
C2753      H2766   1.076       .  S
C2754      C2760   1.431   1_556  A
C2754      C2755   1.421       .  A
C2755      C2757   1.400       .  A
C2755      C2756   1.407       .  A
C2756      H2767   1.084       .  S
C2757      C2758   1.392   1_556  A
C2757      H2768   1.084       .  S
C2758      C2759   1.400       .  A
C2758      H2769   1.084       .  S
C2759      C2760   1.423       .  A
C2759      C2764   1.410       .  A
C2760      C2761   1.412       .  A
C2761      C2762   1.394       .  A
C2761      H2770   1.075       .  S
C2762      C2763   1.403       .  A
C2762      H2771   1.083       .  S
C2763      C2764   1.405       .  A
C2764      H2772   1.084       .  S
C2773      C2774   1.399       .  A
C2773      C2778   1.397       .  A
C2774      C2775   1.405       .  A
C2774      H2787   1.083       .  S
C2775      C2776   1.419       .  A
C2775      H2788   1.078       .  S
C2776      C2782   1.436       .  A
C2776      C2777   1.424       .  A
C2777      C2779   1.398       .  A
C2777      C2778   1.401       .  A
C2778      H2789   1.085       .  S
C2779      C2780   1.386       .  A
C2779      H2790   1.084       .  S
C2780      C2781   1.398       .  A
C2780      H2791   1.084       .  S
C2781      C2782   1.422       .  A
C2781      C2786   1.399       .  A
C2782      C2783   1.420       .  A
C2783      C2784   1.407       .  A
C2783      H2792   1.078       .  S
C2784      C2785   1.400       .  A
C2784      H2793   1.083       .  S
C2785      C2786   1.400       .  A
C2786      H2794   1.086       .  S
C2795      C2796   1.397       .  A
C2795      C2800   1.397       .  A
C2796      C2797   1.395       .  A
C2796      H2809   1.084       .  S
C2797      C2798   1.415       .  A
C2797      H2810   1.077       .  S
C2798      C2804   1.427       .  A
C2798      C2799   1.424       .  A
C2799      C2801   1.399       .  A
C2799      C2800   1.403       .  A
C2800      H2811   1.085       .  S
C2801      C2802   1.389       .  A
C2801      H2812   1.084       .  S
C2802      C2803   1.399       .  A
C2802      H2813   1.084       .  S
C2803      C2804   1.421       .  A
C2803      C2808   1.400       .  A
C2804      C2805   1.417       .  A
C2805      C2806   1.398       .  A
C2805      H2814   1.078       .  S
C2806      C2807   1.397       .  A
C2806      H2815   1.083       .  S
C2807      C2808   1.400       .  A
C2808      H2816   1.085       .  S
