geometry optimzed in LAMMPS
_audit_creation_date              2020-12-01 
_audit_creation_method            'lammps2cif' 
_symmetry_space_group_name_H-M    'P1' 
_symmetry_Int_Tables_number       1 
_symmetry_cell_setting            triclinic 
loop_ 
_symmetry_equiv_pos_as_xyz 
  x,y,z 
_cell_length_a                    56.82223871 
_cell_length_b                    56.909324508500895 
_cell_length_c                    57.61600542214989 
_cell_angle_alpha                 90.105396758184 
_cell_angle_beta                  89.97138782216489 
_cell_angle_gamma                 121.64378691980217 
loop_ 
_atom_site_label 
_atom_site_type_symbol 
_atom_site_fract_x 
_atom_site_fract_y 
_atom_site_fract_z 
_atom_site_charge 
Fe1        Fe  0.57451313  0.13027236  0.19724701     1.65800
Fe2        Fe  0.61429141  0.18470673  0.23325126     1.73200
Fe3        Fe  0.64339305  0.15265674  0.20612621     1.54400
O4          O  0.62143257  0.11074809  0.21270276    -0.82300
O5          O  0.64901962  0.21478475  0.21663091    -0.80600
O6          O  0.57772393  0.09654628  0.20404157    -0.84800
O7          O  0.59231981  0.13582111  0.16458568    -0.79600
O8          O  0.65677559  0.15863147  0.24004613    -0.81400
O9          O  0.59178292  0.19510570  0.21255521    -0.84200
C10         C  0.61588726  0.14136700  0.15743209     0.96600
C11         C  0.59616185  0.09183876  0.21070996     1.04000
O12         O  0.61071937  0.15587831  0.21218349    -1.13100
O13         O  0.57986834  0.15735606  0.25181466    -0.75600
O14         O  0.55243664  0.12221452  0.22824883    -0.79100
O15         O  0.63546732  0.14654047  0.17115001    -0.79800
C16         C  0.55759095  0.13470698  0.24767395     0.95500
O17         O  0.56558453  0.16010600  0.18882382    -0.77700
O18         O  0.63726887  0.17896205  0.25751212    -0.82900
C19         C  0.66821133  0.21572763  0.20462952     0.98100
C20         C  0.65295051  0.16939452  0.25774257     1.04000
O21         O  0.66910056  0.19449736  0.19937275    -0.78500
C22         C  0.57353209  0.18385158  0.19689782     1.02300
Fe23       Fe  0.77800503  0.27405337  0.44623155     1.65800
Fe24       Fe  0.76692705  0.31414759  0.40959641     1.73200
Fe25       Fe  0.82905864  0.34232933  0.43721416     1.54400
O26         O  0.82515426  0.33535747  0.47226308    -0.82300
O27         O  0.79757148  0.33864941  0.38650547    -0.80600
O28         O  0.79109189  0.29203643  0.47879379    -0.84800
O29         O  0.81460586  0.27606080  0.43960262    -0.79600
O30         O  0.81434919  0.36877871  0.44277988    -0.81400
O31         O  0.76053674  0.28111771  0.39028191    -0.84200
C32         C  0.83920091  0.29390386  0.43371874     0.96600
C33         C  0.80942989  0.31596498  0.48593065     1.04000
O34         O  0.79135804  0.31015013  0.43104841    -1.13100
O35         O  0.73162786  0.29009594  0.42853146    -0.75600
O36         O  0.73901074  0.26618786  0.45468549    -0.79100
O37         O  0.84776343  0.31947097  0.43220056    -0.79800
C38         C  0.72347274  0.27313115  0.44516350     0.95500
O39         O  0.76314166  0.25236028  0.41511322    -0.77700
O40         O  0.77167381  0.34729387  0.42775759    -0.82900
C41         C  0.82367180  0.35190005  0.38571215     0.98100
C42         C  0.79119908  0.36675303  0.43929906     1.04000
O43         O  0.83832398  0.35417722  0.40306013    -0.78500
C44         C  0.75862155  0.25840449  0.39498247     1.02300
Fe45       Fe  0.70469883  0.53187068  0.44852841     1.65800
Fe46       Fe  0.66667581  0.47726852  0.41215314     1.73200
Fe47       Fe  0.63477166  0.50533476  0.44063288     1.54400
O48         O  0.64232791  0.50893089  0.47568699    -0.82300
O49         O  0.63987255  0.47927552  0.38933805    -0.80600
O50         O  0.68753137  0.52744224  0.48123115    -0.84800
O51         O  0.69979186  0.56434775  0.44083716    -0.79600
O52         O  0.61091560  0.46286541  0.44572047    -0.81400
O53         O  0.69839399  0.50684350  0.39245228    -0.84200
C54         C  0.67977587  0.56758192  0.43640996     0.96600
C55         C  0.66315014  0.51770259  0.48885234     1.04000
O56         O  0.66874537  0.50489498  0.43382644    -1.13100
O57         O  0.69318508  0.47043097  0.43092645    -0.75600
O58         O  0.71463394  0.50292463  0.45783572    -0.79100
O59         O  0.65473429  0.54770398  0.43612417    -0.79800
C60         C  0.70956217  0.48081421  0.44796577     0.95500
O61         O  0.72657207  0.53950036  0.41768174    -0.77700
O62         O  0.63503135  0.44567642  0.43058567    -0.82900
C63         C  0.62476453  0.48950976  0.38902117     0.98100
C64         C  0.61470102  0.44304383  0.44202423     1.04000
O65         O  0.62206045  0.50133354  0.40654183    -0.78500
C66         C  0.72100082  0.52875961  0.39751622     1.02300
Fe67       Fe  0.49712428  0.38119116  0.20468064     1.65800
Fe68       Fe  0.50196623  0.34284245  0.24711390     1.73200
Fe69       Fe  0.44649955  0.31354736  0.21182884     1.54400
O70         O  0.42704968  0.33528524  0.21781036    -0.82300
O71         O  0.49332782  0.30442734  0.23631195    -0.80600
O72         O  0.45815002  0.37628724  0.20262899    -0.84800
O73         O  0.49260342  0.36217741  0.17294497    -0.79600
O74         O  0.43484241  0.29648141  0.24501760    -0.81400
O75         O  0.53841151  0.35984623  0.22885101    -0.84200
C76         C  0.47196035  0.34062137  0.16443123     0.96600
C77         C  0.43443808  0.35966985  0.21144669     1.04000
O78         O  0.48204392  0.34606214  0.22121218    -1.13100
O79         O  0.51307391  0.38058662  0.26068652    -0.75600
O80         O  0.50421946  0.40410609  0.23482736    -0.79100
O81         O  0.45159438  0.32372887  0.17687058    -0.79800
C82         C  0.51216245  0.40152016  0.25476458     0.95500
O83         O  0.53787420  0.39066185  0.20545210    -0.77700
O84         O  0.46806550  0.32646729  0.26836371    -0.82900
C85         C  0.48255116  0.28945082  0.21835401     0.98100
C86         C  0.44430722  0.30538768  0.26519162     1.04000
O87         O  0.46530829  0.29128438  0.20557451    -0.78500
C88         C  0.55043872  0.38016851  0.21503347     1.02300
Fe89       Fe  0.43475027  0.18553927  0.44915181     1.65800
Fe90       Fe  0.48513047  0.20056068  0.41037065     1.73200
Fe91       Fe  0.45820301  0.14201317  0.44050206     1.54400
O92         O  0.44938262  0.14244674  0.47551722    -0.82300
O93         O  0.46882254  0.17006909  0.38551247    -0.80600
O94         O  0.44639984  0.17943064  0.48135678    -0.84800
O95         O  0.40153707  0.14507297  0.44768120    -0.79600
O96         O  0.49995107  0.16366716  0.44925998    -0.81400
O97         O  0.46007361  0.21403862  0.39870433    -0.84200
C98         C  0.39736633  0.12325489  0.43759215     0.96600
C99         C  0.44857867  0.15975153  0.48898226     1.04000
O100        O  0.45915446  0.17601146  0.43342563    -1.13100
O101        O  0.50261862  0.23215343  0.43395394    -0.75600
O102        O  0.46552098  0.22731562  0.45198961    -0.79100
O103        O  0.41679086  0.11945760  0.43196037    -0.79800
C104        C  0.49111397  0.24150392  0.44671185     0.95500
O105        O  0.42064245  0.19302794  0.41841529    -0.77700
O106        O  0.51486731  0.19158653  0.41877557    -0.82900
C107        C  0.46815436  0.14747403  0.38685023     0.98100
C108        C  0.51945405  0.18109570  0.43631347     1.04000
O109        O  0.46724915  0.13647837  0.40636099    -0.78500
C110        C  0.43566725  0.20854864  0.40205722     1.02300
Fe111      Fe  0.84440126  0.47308032  0.20003878     1.65800
Fe112      Fe  0.79813559  0.45816686  0.24264705     1.73200
Fe113      Fe  0.81906273  0.51549438  0.21010171     1.54400
O114        O  0.86212048  0.54003736  0.21151787    -0.82300
O115        O  0.76287713  0.45269184  0.22749598    -0.80600
O116        O  0.87806014  0.51152263  0.20715118    -0.84800
O117        O  0.83885314  0.48617243  0.16826164    -0.79600
O118        O  0.81909079  0.52719827  0.24396951    -0.81400
O119        O  0.79138804  0.42283158  0.22635782    -0.84200
C120        C  0.82833826  0.49965677  0.16100835     0.96600
C121        C  0.88167214  0.53517673  0.21131105     1.04000
O122        O  0.82039431  0.48238151  0.21736567    -1.13100
O123        O  0.83230341  0.46300299  0.25899466    -0.75600
O124        O  0.85383835  0.45763234  0.22909847    -0.79100
O125        O  0.81898145  0.51025002  0.17469805    -0.79800
C126        C  0.84927940  0.45717940  0.25074366     0.95500
O127        O  0.81215801  0.43381303  0.19196949    -0.77700
O128        O  0.80123458  0.48845853  0.26396473    -0.82900
C129        C  0.75721638  0.46821842  0.21600321     0.98100
C130        C  0.81019873  0.51392015  0.26269822     1.04000
O131        O  0.77560023  0.49252222  0.20924693    -0.78500
C132        C  0.79602529  0.41608098  0.20667703     1.02300
Fe133      Fe  0.43891379  0.26125406  0.95103248     1.65800
Fe134      Fe  0.48714151  0.29460150  0.90941958     1.73200
Fe135      Fe  0.46785748  0.33113621  0.94262400     1.54400
O136        O  0.42533333  0.31318070  0.94060602    -0.82300
O137        O  0.52236520  0.32435560  0.92571170    -0.80600
O138        O  0.40686428  0.26772014  0.94568216    -0.84800
O139        O  0.44711231  0.27946870  0.98354925    -0.79600
O140        O  0.46997219  0.34469250  0.90890618    -0.81400
O141        O  0.49176733  0.26440610  0.92467770    -0.84200
C142        C  0.45814764  0.30392212  0.99122438     0.96600
C143        C  0.40469812  0.28848233  0.94157601     1.04000
O144        O  0.46466942  0.29582781  0.93450861    -1.13100
O145        O  0.45297813  0.26546743  0.89201288    -0.75600
O146        O  0.42715589  0.23740898  0.92066238    -0.79100
O147        O  0.46668186  0.32447129  0.97786290    -0.79800
C148        C  0.43316034  0.24254826  0.89922423     0.95500
O149        O  0.46867171  0.25159104  0.95792922    -0.77700
O150        O  0.48652265  0.32349469  0.88868125    -0.82900
C151        C  0.52855448  0.34551292  0.93794268     0.98100
C152        C  0.47905644  0.34076287  0.89019258     1.04000
O153        O  0.51074933  0.35128192  0.94471236    -0.78500
C154        C  0.48526698  0.25105371  0.94355648     1.02300
Fe155      Fe  0.58666840  0.47159448  0.70277781     1.65800
Fe156      Fe  0.62917181  0.46175681  0.73776283     1.73200
Fe157      Fe  0.65555040  0.52296526  0.70902437     1.54400
O158        O  0.64581993  0.51881767  0.67442785    -0.82300
O159        O  0.65260196  0.49291878  0.76094670    -0.80600
O160        O  0.60249606  0.48395069  0.66941280    -0.84800
O161        O  0.58903573  0.50829917  0.70954272    -0.79600
O162        O  0.68145747  0.50821987  0.70113243    -0.81400
O163        O  0.59559363  0.45300448  0.75744112    -0.84200
C164        C  0.60716882  0.53283121  0.71539512     0.96600
C165        C  0.62576564  0.50267507  0.66144045     1.04000
O166        O  0.62377057  0.48543927  0.71650022    -1.13100
O167        O  0.60620096  0.42666080  0.71820855    -0.75600
O168        O  0.57886382  0.43266489  0.69465743    -0.79100
O169        O  0.63284009  0.54138676  0.71624025    -0.79800
C170        C  0.58751493  0.41788552  0.70284144     0.95500
O171        O  0.56621117  0.45699927  0.73453742    -0.77700
O172        O  0.66312763  0.46798132  0.71987076    -0.82900
C173        C  0.66770940  0.51896042  0.76048876     0.98100
C174        C  0.68096741  0.48624619  0.70641690     1.04000
O175        O  0.67078575  0.53289060  0.74242884    -0.78500
C176        C  0.57266727  0.45115662  0.75393564     1.02300
Fe177      Fe  0.49914721  0.13276934  0.70128628     1.65800
Fe178      Fe  0.50972397  0.17880344  0.74414729     1.73200
Fe179      Fe  0.45210580  0.15264063  0.71067516     1.54400
O180        O  0.45562856  0.14912746  0.67551944    -0.82300
O181        O  0.47748827  0.16662256  0.76663259    -0.80600
O182        O  0.48964485  0.14171527  0.66906648    -0.84800
O183        O  0.46031645  0.09777511  0.70463751    -0.79600
O184        O  0.47247714  0.19526731  0.70602841    -0.81400
O185        O  0.51487266  0.14927345  0.75905989    -0.84200
C186        C  0.43642527  0.09184275  0.71131708     0.96600
C187        C  0.47133080  0.14625160  0.66181607     1.04000
O188        O  0.48704288  0.15473400  0.71863179    -1.13100
O189        O  0.54550794  0.19424870  0.72543593    -0.75600
O190        O  0.53924804  0.16562742  0.69645748    -0.79100
O191        O  0.43015790  0.11003387  0.71496416    -0.79800
C192        C  0.55430446  0.18770777  0.70786554     0.95500
O193        O  0.51095629  0.12053014  0.73095342    -0.77700
O194        O  0.50677316  0.21108736  0.73196755    -0.82900
C195        C  0.45285860  0.16055454  0.76409829     0.98100
C196        C  0.49301194  0.21500143  0.71672842     1.04000
O197        O  0.44157065  0.15611237  0.74433962    -0.78500
C198        C  0.51569581  0.12869279  0.75192061     1.02300
Fe199      Fe  0.69874627  0.18867469  0.94482831     1.65800
Fe200      Fe  0.65809693  0.19806196  0.90765601     1.73200
Fe201      Fe  0.63016524  0.13742572  0.93682598     1.54400
O202        O  0.65329970  0.11878508  0.93354091    -0.82300
O203        O  0.62629967  0.19548230  0.92667753    -0.80600
O204        O  0.69743059  0.15250933  0.93768303    -0.84800
O205        O  0.68152577  0.17485571  0.97767599    -0.79600
O206        O  0.61824100  0.12633080  0.90275111    -0.81400
O207        O  0.68442359  0.23443151  0.92450891    -0.84200
C208        C  0.65739025  0.15766723  0.98525253     0.96600
C209        C  0.67901682  0.12745340  0.93367848     1.04000
O210        O  0.66235017  0.17463334  0.92986917    -1.13100
O211        O  0.68969105  0.20194126  0.88767035    -0.75600
O212        O  0.72031794  0.20469311  0.91362154    -0.79100
O213        O  0.63714279  0.14304026  0.97186595    -0.79800
C214        C  0.71356348  0.20693386  0.89298484     0.95500
O215        O  0.70518026  0.22701420  0.95359146    -0.77700
O216        O  0.63134468  0.16643623  0.88614857    -0.82900
C217        C  0.60595572  0.17569059  0.93727020     0.98100
C218        C  0.61876342  0.14039959  0.88559535     1.04000
O219        O  0.60352776  0.15232881  0.94054517    -0.78500
C220        C  0.70017684  0.24283992  0.94203155     1.02300
Fe221      Fe  0.84693516  0.39919604  0.69831411     1.65800
Fe222      Fe  0.79415811  0.36279250  0.73663854     1.73200
Fe223      Fe  0.81830108  0.32917498  0.70520400     1.54400
O224        O  0.82582823  0.33897541  0.67058769    -0.82300
O225        O  0.79947545  0.33843660  0.75957523    -0.80600
O226        O  0.83682283  0.38225969  0.66528705    -0.84800
O227        O  0.87828283  0.39099729  0.70154285    -0.79600
O228        O  0.77630330  0.30887301  0.69771094    -0.81400
O229        O  0.82498742  0.39592485  0.75426890    -0.84200
C230        C  0.88070531  0.37116284  0.70857436     0.96600
C231        C  0.83068924  0.35885254  0.65744673     1.04000
O232        O  0.81982711  0.36377145  0.71338922    -1.13100
O233        O  0.78465916  0.38691916  0.71739560    -0.75600
O234        O  0.81930136  0.41226080  0.69316692    -0.79100
O235        O  0.86000967  0.34699448  0.71209568    -0.79800
C236        C  0.79588306  0.40505868  0.70173357     0.95500
O237        O  0.86000566  0.42039318  0.72975976    -0.77700
O238        O  0.76099716  0.32961313  0.72089813    -0.82900
C239        C  0.80398186  0.31901963  0.75762423     0.98100
C240        C  0.75704026  0.31170633  0.70570328     1.04000
O241        O  0.81021910  0.31289139  0.73839641    -0.78500
C242        C  0.84896336  0.41618368  0.74973546     1.02300
Fe243      Fe  0.78616359  0.52937753  0.94681104     1.65800
Fe244      Fe  0.77493347  0.47973799  0.90745414     1.73200
Fe245      Fe  0.83389649  0.50975711  0.93994680     1.54400
O246        O  0.85538166  0.55219513  0.93410699    -0.82300
O247        O  0.77699593  0.44870159  0.92342237    -0.80600
O248        O  0.82461789  0.56405619  0.94285289    -0.84800
O249        O  0.79541149  0.52212420  0.97975576    -0.79600
O250        O  0.84464728  0.50498316  0.90675055    -0.81400
O251        O  0.73908188  0.46630656  0.92578235    -0.84200
C252        C  0.81373174  0.51803072  0.98779885     0.96600
C253        C  0.84862783  0.57017744  0.93662525     1.04000
O254        O  0.79833476  0.50629964  0.93141795    -1.13100
O255        O  0.77059143  0.50842643  0.88966501    -0.75600
O256        O  0.77469119  0.53937932  0.91576915    -0.79100
O257        O  0.82984104  0.51485787  0.97480755    -0.79800
C258        C  0.76996463  0.52965167  0.89525050     0.95500
O259        O  0.74615063  0.49760758  0.95249591    -0.77700
O260        O  0.80689160  0.48869220  0.88529123    -0.82900
C261        C  0.79227568  0.44665709  0.93833201     0.98100
C262        C  0.83222991  0.49703125  0.88747964     1.04000
O263        O  0.81453238  0.46735851  0.94620158    -0.78500
C264        C  0.73088133  0.47467111  0.94249559     1.02300
Fe265      Fe  0.24480769  0.46513345  0.53122214     1.65800
Fe266      Fe  0.27893182  0.51549544  0.57211331     1.73200
Fe267      Fe  0.31476778  0.49420656  0.54046613     1.54400
O268        O  0.29674946  0.45228765  0.54644593    -0.82300
O269        O  0.31256619  0.54953659  0.55830895    -0.80600
O270        O  0.25243287  0.43360561  0.53590089    -0.84800
O271        O  0.26341236  0.47470174  0.49868283    -0.79600
O272        O  0.32959516  0.50086145  0.57404075    -0.81400
O273        O  0.25499465  0.52519662  0.55274381    -0.84200
C274        C  0.28745260  0.48195163  0.49157909     0.96600
C275        C  0.27241448  0.43155756  0.54330108     1.04000
O276        O  0.27945233  0.49161960  0.54783660    -1.13100
O277        O  0.24543474  0.48388299  0.58821970    -0.75600
O278        O  0.22096707  0.45177781  0.56148402    -0.79100
O279        O  0.30714688  0.48814879  0.50543560    -0.79800
C280        C  0.22454181  0.46114156  0.58208098     0.95500
O281        O  0.23317537  0.49368837  0.52508473    -0.77700
O282        O  0.30253604  0.50939688  0.59531802    -0.82900
C283        C  0.33125940  0.55500106  0.54347821     0.98100
C284        C  0.32242489  0.50558821  0.59341390     1.04000
O285        O  0.33472755  0.53655459  0.53444129    -0.78500
C286        C  0.23872131  0.51569422  0.53554207     1.02300
Fe287      Fe  0.10914986  0.51811825  0.78113991     1.65800
Fe288      Fe  0.16243320  0.53253924  0.74476933     1.73200
Fe289      Fe  0.13130374  0.47228497  0.77513506     1.54400
O290        O  0.12394628  0.47516020  0.80975592    -0.82300
O291        O  0.15461923  0.50176651  0.72178271    -0.80600
O292        O  0.11549861  0.50883140  0.81443737    -0.84800
O293        O  0.07513820  0.47892533  0.77610195    -0.79600
O294        O  0.17311605  0.49186742  0.78363880    -0.81400
O295        O  0.13514505  0.53799771  0.72604368    -0.84200
C296        C  0.07055755  0.45569362  0.76906142     0.96600
C297        C  0.12009460  0.49092125  0.82264117     1.04000
O298        O  0.13428272  0.50768361  0.76704173    -1.13100
O299        O  0.17417131  0.56723058  0.76405510    -0.75600
O300        O  0.13969200  0.55880009  0.78765271    -0.79100
O301        O  0.08949692  0.45023234  0.76697900    -0.79800
C302        C  0.16355069  0.57492899  0.77928292     0.95500
O303        O  0.10024356  0.52946471  0.74946875    -0.77700
O304        O  0.19265707  0.52992269  0.76171795    -0.82900
C305        C  0.14651502  0.47646845  0.72311196     0.98100
C306        C  0.19407474  0.51438223  0.77667858     1.04000
O307        O  0.13849225  0.46323474  0.74199929    -0.78500
C308        C  0.11256963  0.53673089  0.72997365     1.02300
Fe309      Fe  0.36980159  0.86298854  0.78408141     1.65800
Fe310      Fe  0.33086636  0.80947460  0.74708087     1.73200
Fe311      Fe  0.30044669  0.83914176  0.77596399     1.54400
O312        O  0.30880191  0.84474741  0.81100505    -0.82300
O313        O  0.30694513  0.81485165  0.72362963    -0.80600
O314        O  0.35223195  0.85608504  0.81692324    -0.84800
O315        O  0.36536527  0.89630480  0.77816810    -0.79600
O316        O  0.27611544  0.79708997  0.78268537    -0.81400
O317        O  0.36461868  0.83814621  0.72849613    -0.84200
C318        C  0.34649496  0.90046068  0.77155488     0.96600
C319        C  0.32856895  0.84974811  0.82445799     1.04000
O320        O  0.33373510  0.83721630  0.76906780    -1.13100
O321        O  0.35462889  0.79960136  0.76650621    -0.75600
O322        O  0.37994240  0.83351696  0.79137418    -0.79100
O323        O  0.32136092  0.88112752  0.76966338    -0.79800
C324        C  0.37271633  0.81033593  0.78231055     0.95500
O325        O  0.39155992  0.87240652  0.75296792    -0.77700
O326        O  0.29713631  0.77847529  0.76417968    -0.82900
C327        C  0.29088913  0.82395134  0.72389319     0.98100
C328        C  0.27825982  0.77662014  0.77727238     1.04000
O329        O  0.28652148  0.83358023  0.74208784    -0.78500
C330        C  0.38664335  0.86088093  0.73312955     1.02300
Fe331      Fe  0.16781378  0.72032357  0.53602944     1.65800
Fe332      Fe  0.17591149  0.68116379  0.57562337     1.73200
Fe333      Fe  0.11792754  0.65268369  0.54339273     1.54400
O334        O  0.09907424  0.67434523  0.55235622    -0.82300
O335        O  0.16621038  0.64290390  0.56345897    -0.80600
O336        O  0.12876243  0.71516365  0.53628899    -0.84800
O337        O  0.16144768  0.70200002  0.50368567    -0.79600
O338        O  0.10900955  0.63489135  0.57619257    -0.81400
O339        O  0.21086477  0.69867809  0.55525617    -0.84200
C340        C  0.14005071  0.68060951  0.49579101     0.96600
C341        C  0.10587464  0.69866726  0.54633452     1.04000
O342        O  0.15410126  0.68486371  0.55166408    -1.13100
O343        O  0.18764703  0.71849675  0.59052468    -0.75600
O344        O  0.17609437  0.74201191  0.56701378    -0.79100
O345        O  0.12046990  0.66383773  0.50892338    -0.79800
C346        C  0.18527873  0.73898573  0.58617159     0.95500
O347        O  0.20867710  0.73040122  0.53445379    -0.77700
O348        O  0.14372824  0.66394581  0.59879893    -0.82900
C349        C  0.15281458  0.62704749  0.54653005     0.98100
C350        C  0.12006137  0.64257161  0.59606328     1.04000
O351        O  0.13568716  0.62992642  0.53447963    -0.78500
C352        C  0.22191558  0.71965309  0.54207105     1.02300
Fe353      Fe  0.45124200  0.60911116  0.77968147     1.65800
Fe354      Fe  0.43924756  0.64585713  0.74041428     1.73200
Fe355      Fe  0.49993201  0.67771241  0.76975322     1.54400
O356        O  0.49447731  0.67287654  0.80488207    -0.82300
O357        O  0.47029668  0.67314477  0.71848064    -0.80600
O358        O  0.46622516  0.62795943  0.81171440    -0.84800
O359        O  0.48758071  0.61137825  0.77232252    -0.79600
O360        O  0.48277795  0.70274679  0.77179829    -0.81400
O361        O  0.43797788  0.61469252  0.72182397    -0.84200
C362        C  0.51252789  0.63034494  0.76884342     0.96600
C363        C  0.48176432  0.65271041  0.81862601     1.04000
O364        O  0.46360284  0.64427298  0.76341542    -1.13100
O365        O  0.40329119  0.61864615  0.75771405    -0.75600
O366        O  0.41321137  0.60273432  0.78893957    -0.79100
O367        O  0.52040994  0.65588602  0.76827977    -0.79800
C368        C  0.39628003  0.60535738  0.77663241     0.95500
O369        O  0.43444147  0.58553600  0.74949853    -0.77700
O370        O  0.43946731  0.67709194  0.75828882    -0.82900
C371        C  0.49643704  0.68629271  0.71809016     0.98100
C372        C  0.45849939  0.69832805  0.76862565     1.04000
O373        O  0.51057296  0.68757894  0.73548793    -0.78500
C374        C  0.43294237  0.59123400  0.72836246     1.02300
Fe375      Fe  0.51287309  0.81337413  0.53834071     1.65800
Fe376      Fe  0.46603908  0.80176508  0.58067785     1.73200
Fe377      Fe  0.48916178  0.85731926  0.54617698     1.54400
O378        O  0.53147340  0.88087768  0.55150339    -0.82300
O379        O  0.43369910  0.80611150  0.57079682    -0.80600
O380        O  0.54654587  0.85337341  0.53982602    -0.84800
O381        O  0.50134630  0.81942589  0.50601796    -0.79600
O382        O  0.48394988  0.86717409  0.57969963    -0.81400
O383        O  0.44862866  0.76648699  0.56073960    -0.84200
C384        C  0.49628227  0.83705563  0.49807491     0.96600
C385        C  0.55078320  0.87627982  0.54754112     1.04000
O386        O  0.48941054  0.82402256  0.55495394    -1.13100
O387        O  0.49465551  0.79413516  0.59429299    -0.75600
O388        O  0.52757901  0.80494188  0.56814100    -0.79100
O389        O  0.49379572  0.85354474  0.51112886    -0.79800
C390        C  0.51714777  0.79650369  0.58809122     0.95500
O391        O  0.48153665  0.77241032  0.53579395    -0.77700
O392        O  0.48155047  0.83495948  0.60287949    -0.82900
C393        C  0.42792922  0.81657599  0.55394027     0.98100
C394        C  0.48349037  0.85792771  0.59981141     1.04000
O395        O  0.44654111  0.83489077  0.54081325    -0.78500
C396        C  0.45776033  0.75779703  0.54489961     1.02300
Fe397      Fe  0.24876515  0.80236341  0.03788736     1.65800
Fe398      Fe  0.28722765  0.78965576  0.07509471     1.73200
Fe399      Fe  0.31784985  0.85003530  0.04527658     1.54400
O400        O  0.30755544  0.84823250  0.01059208    -0.82300
O401        O  0.30789665  0.82027802  0.09924725    -0.80600
O402        O  0.26610270  0.81064661  0.00500341    -0.84800
O403        O  0.25486092  0.84137697  0.04125743    -0.79600
O404        O  0.34013036  0.83166303  0.03594453    -0.81400
O405        O  0.25160300  0.78048648  0.09194017    -0.84200
C406        C  0.27285782  0.86427386  0.05038185     0.96600
C407        C  0.28878720  0.83055924  0.99726011     1.04000
O408        O  0.28455388  0.81393713  0.05276030    -1.13100
O409        O  0.26652846  0.75551706  0.05404119    -0.75600
O410        O  0.23730694  0.76159415  0.03307921    -0.79100
O411        O  0.29754126  0.87045681  0.05440376    -0.79800
C412        C  0.24647442  0.74672816  0.03999143     0.95500
O413        O  0.22755096  0.79223664  0.06927479    -0.77700
O414        O  0.32323772  0.79620724  0.06057525    -0.82900
C415        C  0.32760357  0.84507841  0.09764300     0.98100
C416        C  0.33996288  0.81098747  0.04465489     1.04000
O417        O  0.33451708  0.85790774  0.07848599    -0.78500
C418        C  0.23116577  0.78320814  0.08826928     1.02300
Fe419      Fe  0.44988675  0.85904766  0.28384014     1.65800
Fe420      Fe  0.44171882  0.81111629  0.24471872     1.73200
Fe421      Fe  0.49891007  0.84245074  0.27742501     1.54400
O422        O  0.51829195  0.88352197  0.26806983    -0.82300
O423        O  0.45211917  0.78326646  0.25606226    -0.80600
O424        O  0.48917850  0.89415631  0.28406971    -0.84800
O425        O  0.45542095  0.84755489  0.31633660    -0.79600
O426        O  0.50770512  0.83329533  0.24453202    -0.81400
O427        O  0.40737976  0.79159122  0.26568222    -0.84200
C428        C  0.47686447  0.84913188  0.32466927     0.96600
C429        C  0.51173020  0.90100901  0.27372282     1.04000
O430        O  0.46330077  0.83749865  0.26873675    -1.13100
O431        O  0.42891414  0.83549157  0.23017988    -0.75600
O432        O  0.44265843  0.87237090  0.25268403    -0.79100
O433        O  0.49626869  0.85177261  0.31180179    -0.79800
C434        C  0.43243402  0.85908015  0.23394511     0.95500
O435        O  0.40902896  0.82650838  0.28488266    -0.77700
O436        O  0.47413394  0.82893303  0.22187659    -0.82900
C437        C  0.46366941  0.78088332  0.27406171     0.98100
C438        C  0.49743549  0.83147291  0.22455537     1.04000
O439        O  0.47997540  0.80135543  0.28677877    -0.78500
C440        C  0.39630370  0.80140749  0.27840322     1.02300
Fe441      Fe  0.10201928  0.59372713  0.28350681     1.65800
Fe442      Fe  0.14916532  0.62685182  0.24095399     1.73200
Fe443      Fe  0.13199154  0.66384852  0.27573009     1.54400
O444        O  0.08958658  0.64665915  0.27351016    -0.82300
O445        O  0.18518459  0.65651024  0.25650485    -0.80600
O446        O  0.07034006  0.60102018  0.27863220    -0.84800
O447        O  0.11058150  0.61155128  0.31644132    -0.79600
O448        O  0.13477887  0.67879634  0.24265063    -0.81400
O449        O  0.15427717  0.59675799  0.25585744    -0.84200
C450        C  0.12147914  0.63606155  0.32399027     0.96600
C451        C  0.06865444  0.62208520  0.27439701     1.04000
O452        O  0.12777206  0.62828682  0.26688887    -1.13100
O453        O  0.11438360  0.59769386  0.22410445    -0.75600
O454        O  0.08945691  0.56973935  0.25306244    -0.79100
O455        O  0.13015943  0.65643584  0.31052785    -0.79800
C456        C  0.09490674  0.57469887  0.23151784     0.95500
O457        O  0.13185363  0.58382527  0.28950392    -0.77700
O458        O  0.14773332  0.65572944  0.22071030    -0.82900
C459        C  0.19210021  0.67686956  0.27002852     0.98100
C460        C  0.14190140  0.67413433  0.22327966     1.04000
O461        O  0.17482043  0.68273939  0.27807473    -0.78500
C462        C  0.14844647  0.58363540  0.27485033     1.02300
Fe463      Fe  0.16236393  0.46206887  0.03660472     1.65800
Fe464      Fe  0.17497139  0.51272922  0.07545476     1.73200
Fe465      Fe  0.11449059  0.48118086  0.04454088     1.54400
O466        O  0.11834609  0.47723667  0.00935325    -0.82300
O467        O  0.14354964  0.50405335  0.09845195    -0.80600
O468        O  0.15134913  0.46796892  0.00403051    -0.84800
O469        O  0.12430048  0.42696994  0.04202214    -0.79600
O470        O  0.13275433  0.52345839  0.03887759    -0.81400
O471        O  0.18059818  0.48474609  0.09330860    -0.84200
C472        C  0.10004267  0.42068873  0.04762949     0.96600
C473        C  0.13382822  0.47329442  0.99618914     1.04000
O474        O  0.15058991  0.48530149  0.05223297    -1.13100
O475        O  0.21039521  0.52580551  0.05623611    -0.75600
O476        O  0.20188476  0.49412091  0.02946273    -0.79100
O477        O  0.09314946  0.43857811  0.04978062    -0.79800
C478        C  0.21792693  0.51705065  0.03927341     0.95500
O479        O  0.17606760  0.45374406  0.06701454    -0.77700
O480        O  0.17205735  0.54336595  0.05942767    -0.82900
C481        C  0.11774762  0.49404953  0.09705509     0.98100
C482        C  0.15529822  0.54459350  0.04566220     1.04000
O483        O  0.10458183  0.48492401  0.07820893    -0.78500
C484        C  0.18198163  0.46403899  0.08729276     1.02300
Fe485      Fe  0.51064526  0.73046979  0.03187040     1.65800
Fe486      Fe  0.45233390  0.69257088  0.06369941     1.73200
Fe487      Fe  0.48188609  0.66059966  0.03819469     1.54400
O488        O  0.49201110  0.67095525  0.00382376    -0.82300
O489        O  0.45972823  0.67291952  0.09020247    -0.80600
O490        O  0.50333597  0.71457722  0.99845698    -0.84800
O491        O  0.54192920  0.72241946  0.03645028    -0.79600
O492        O  0.44086989  0.63819275  0.02787353    -0.81400
O493        O  0.47836444  0.72946647  0.08004239    -0.84200
C494        C  0.54364756  0.70265336  0.04459479     0.96600
C495        C  0.49759901  0.69117702  0.99070519     1.04000
O496        O  0.48165305  0.69450801  0.04454001    -1.13100
O497        O  0.44255619  0.71190530  0.03892693    -0.75600
O498        O  0.48376510  0.74451002  0.02561458    -0.79100
O499        O  0.52266014  0.67880975  0.04802347    -0.79800
C500        C  0.45788070  0.73413831  0.02794746     0.95500
O501        O  0.52039879  0.74930640  0.06439733    -0.77700
O502        O  0.42166461  0.65591832  0.04976661    -0.82900
C503        C  0.46535768  0.65406054  0.09018161     0.98100
C504        C  0.41996122  0.63838367  0.03525459     1.04000
O505        O  0.47161703  0.64619261  0.07180646    -0.78500
C506        C  0.50381758  0.74807944  0.07984846     1.02300
Fe507      Fe  0.36946776  0.52614682  0.27976460     1.65800
Fe508      Fe  0.33117571  0.53916636  0.24267155     1.73200
Fe509      Fe  0.30056057  0.47704214  0.27025570     1.54400
O510        O  0.32276551  0.45741263  0.26573321    -0.82300
O511        O  0.29763847  0.53537699  0.25956661    -0.80600
O512        O  0.36718648  0.49026093  0.27020506    -0.84800
O513        O  0.35136353  0.51051260  0.31176549    -0.79600
O514        O  0.28932545  0.46816919  0.23583371    -0.81400
O515        O  0.35554869  0.57356482  0.26263427    -0.84200
C516        C  0.32708140  0.49390209  0.31917365     0.96600
C517        C  0.34841330  0.46568230  0.26515283     1.04000
O518        O  0.33366891  0.51407842  0.26433429    -1.13100
O519        O  0.36436875  0.54505557  0.22395886    -0.75600
O520        O  0.39301162  0.54435645  0.25001189    -0.79100
O521        O  0.30666443  0.48043602  0.30564492    -0.79800
C522        C  0.38760163  0.54879904  0.22966849     0.95500
O523        O  0.37594201  0.56365898  0.29054954    -0.77700
O524        O  0.30672378  0.50902678  0.21905458    -0.82900
C525        C  0.27717049  0.51611979  0.27041524     0.98100
C526        C  0.29247010  0.48294011  0.21833516     1.04000
O527        O  0.27478010  0.49294969  0.27474103    -0.78500
C528        C  0.37063530  0.58017328  0.28057338     1.02300
Fe529      Fe  0.92124590  0.13960211  0.37139845     1.65800
Fe530      Fe  0.96422206  0.13068258  0.40505647     1.73200
Fe531      Fe  0.98784121  0.19170634  0.37828948     1.54400
O532        O  0.97592954  0.18971794  0.34397059    -0.82300
O533        O  0.97833052  0.15938197  0.43126570    -0.80600
O534        O  0.93845704  0.14794707  0.33874034    -0.84800
O535        O  0.92380075  0.17739267  0.37322125    -0.79600
O536        O  0.01325550  0.17817954  0.36688198    -0.81400
O537        O  0.92525208  0.11194260  0.41922891    -0.84200
C538        C  0.93989123  0.20046881  0.38309358     0.96600
C539        C  0.95940800  0.16976716  0.33088603     1.04000
O540        O  0.95774037  0.15408538  0.38505147    -1.13100
O541        O  0.95016061  0.09985895  0.38044155    -0.75600
O542        O  0.91293332  0.09949019  0.36812503    -0.79100
O543        O  0.96439202  0.20788187  0.38899622    -0.79800
C544        C  0.92634962  0.08754466  0.37114234     0.95500
O545        O  0.90187937  0.12943712  0.40350112    -0.77700
O546        O  0.00409831  0.14605912  0.39340675    -0.82900
C547        C  0.99723848  0.18472153  0.43051020     0.98100
C548        C  0.01869788  0.16178180  0.37695481     1.04000
O549        O  0.00439933  0.19841961  0.41166684    -0.78500
C550        C  0.90429334  0.11437840  0.41840522     1.02300
Fe551      Fe  0.12274342  0.20246502  0.61491095     1.65800
Fe552      Fe  0.10868658  0.15458243  0.57310499     1.73200
Fe553      Fe  0.16625075  0.17895194  0.60482918     1.54400
O554        O  0.18906900  0.22061871  0.59686458    -0.82300
O555        O  0.11403309  0.12276835  0.58295121    -0.80600
O556        O  0.16317002  0.23590970  0.61224858    -0.84800
O557        O  0.13013866  0.19095943  0.64679723    -0.79600
O558        O  0.17310940  0.17056283  0.57122877    -0.81400
O559        O  0.07481090  0.13772501  0.59438276    -0.84200
C560        C  0.14990032  0.18850790  0.65374673     0.96600
C561        C  0.18500438  0.24001109  0.60210798     1.04000
O562        O  0.13234663  0.17870628  0.59775830    -1.13100
O563        O  0.09999085  0.18257929  0.55999348    -0.75600
O564        O  0.11345770  0.21688355  0.58533662    -0.79100
O565        O  0.16635741  0.18721113  0.63973349    -0.79800
C566        C  0.10357972  0.20566282  0.56582777     0.95500
O567        O  0.08142274  0.17135965  0.61869638    -0.77700
O568        O  0.14060504  0.17009409  0.54976060    -0.82900
C569        C  0.12435341  0.11775851  0.60045129     0.98100
C570        C  0.16337594  0.17132359  0.55166948     1.04000
O571        O  0.14349317  0.13700436  0.61266358    -0.78500
C572        C  0.06654500  0.14717203  0.61028859     1.02300
Fe573      Fe  0.17668528  0.06967131  0.36256035     1.65800
Fe574      Fe  0.11784213  0.03400411  0.39404578     1.73200
Fe575      Fe  0.14689738  0.00043037  0.37086992     1.54400
O576        O  0.15987606  0.01055773  0.33701013    -0.82300
O577        O  0.12248124  0.01308971  0.42132532    -0.80600
O578        O  0.16758401  0.05247978  0.32954669    -0.84800
O579        O  0.20674525  0.06000827  0.36694887    -0.79600
O580        O  0.10666445  0.97927492  0.35869445    -0.81400
O581        O  0.14508933  0.07051025  0.41031321    -0.84200
C582        C  0.20811886  0.04124088  0.37755866     0.96600
C583        C  0.16367444  0.02933958  0.32287339     1.04000
O584        O  0.14710389  0.03468061  0.37591669    -1.13100
O585        O  0.10984557  0.05469732  0.36904851    -0.75600
O586        O  0.15194171  0.08584448  0.35663797    -0.79100
O587        O  0.18679568  0.01829214  0.38281285    -0.79800
C588        C  0.12652024  0.07731177  0.35912426     0.95500
O589        O  0.18722863  0.08918732  0.39475172    -0.77700
O590        O  0.08726038  0.99808939  0.37910694    -0.82900
C591        C  0.12662262  0.99322119  0.42182811     0.98100
C592        C  0.08581898  0.98037398  0.36485907     1.04000
O593        O  0.13377419  0.98546025  0.40395259    -0.78500
C594        C  0.17069448  0.08888721  0.40984160     1.02300
Fe595      Fe  0.77309587  0.93239725  0.61775545     1.65800
Fe596      Fe  0.82391814  0.96557581  0.57710917     1.73200
Fe597      Fe  0.80339803  0.00234526  0.60832007     1.54400
O598        O  0.76165894  0.98510584  0.60305376    -0.82300
O599        O  0.85836176  0.00092464  0.58898327    -0.80600
O600        O  0.74202941  0.94106155  0.61418029    -0.84800
O601        O  0.78431410  0.95118816  0.65011375    -0.79600
O602        O  0.80923673  0.01610178  0.57430647    -0.81400
O603        O  0.83520870  0.94360779  0.59768531    -0.84200
C604        C  0.79239163  0.97539629  0.65727753     0.96600
C605        C  0.74055654  0.96129246  0.60666959     1.04000
O606        O  0.80017095  0.96670590  0.60118021    -1.13100
O607        O  0.79251080  0.93057142  0.56213206    -0.75600
O608        O  0.75819107  0.90886170  0.58760866    -0.79100
O609        O  0.79833929  0.99509242  0.64351041    -0.79800
C610        C  0.76860326  0.91105011  0.56764752     0.95500
O611        O  0.80085816  0.91933399  0.62272729    -0.77700
O612        O  0.81526776  0.98687389  0.55345985    -0.82900
C613        C  0.86410340  0.01994741  0.60357341     0.98100
C614        C  0.81201758  0.00715989  0.55499712     1.04000
O615        O  0.84564130  0.02238377  0.61374059    -0.78500
C616        C  0.82401185  0.92591847  0.61378125     1.02300
Fe617      Fe  0.83036961  0.79858072  0.37052369     1.65800
Fe618      Fe  0.84340316  0.84804457  0.41065019     1.73200
Fe619      Fe  0.78451233  0.82044679  0.37829037     1.54400
O620        O  0.78830836  0.81619112  0.34332465    -0.82300
O621        O  0.81184287  0.83982657  0.43298939    -0.80600
O622        O  0.81967695  0.80477972  0.33784589    -0.84800
O623        O  0.79166408  0.76437589  0.37586450    -0.79600
O624        O  0.80515840  0.86302338  0.37281169    -0.81400
O625        O  0.84656153  0.81855346  0.42797312    -0.84200
C626        C  0.76771342  0.75924790  0.38132803     0.96600
C627        C  0.80272641  0.81092057  0.33008636     1.04000
O628        O  0.81938596  0.82231030  0.38645155    -1.13100
O629        O  0.87886560  0.86019861  0.39218619    -0.75600
O630        O  0.87015591  0.83043765  0.36358538    -0.79100
O631        O  0.76178196  0.77789283  0.38327428    -0.79800
C632        C  0.88633709  0.85257916  0.37443740     0.95500
O633        O  0.84357768  0.78912377  0.40084884    -0.77700
O634        O  0.84286242  0.88014078  0.39523896    -0.82900
C635        C  0.78654705  0.83172031  0.43100140     0.98100
C636        C  0.82790934  0.88306175  0.38062157     1.04000
O637        O  0.77411041  0.82452482  0.41171839    -0.78500
C638        C  0.84820546  0.79818620  0.42155756     1.02300
Fe639      Fe  0.03452120  0.86179652  0.61346553     1.65800
Fe640      Fe  0.99132929  0.87168947  0.57958148     1.73200
Fe641      Fe  0.96606068  0.80951913  0.60652111     1.54400
O642        O  0.98955612  0.79206781  0.59915126    -0.82300
O643        O  0.95695216  0.86396582  0.59764113    -0.80600
O644        O  0.03313862  0.82565708  0.60581028    -0.84800
O645        O  0.01840868  0.84824124  0.64636197    -0.79600
O646        O  0.95186108  0.80062985  0.57279794    -0.81400
O647        O  0.01338146  0.90604631  0.60006026    -0.84200
C648        C  0.99538636  0.82894939  0.65419906     0.96600
C649        C  0.01529540  0.80100959  0.59998149     1.04000
O650        O  0.99734029  0.84764501  0.59985716    -1.13100
O651        O  0.02530914  0.88201965  0.55977973    -0.75600
O652        O  0.05498677  0.87768512  0.58207629    -0.79100
O653        O  0.97539807  0.81276862  0.64115878    -0.79800
C654        C  0.04840165  0.88418215  0.56310581     0.95500
O655        O  0.04159361  0.90026235  0.62263992    -0.77700
O656        O  0.96866894  0.84129223  0.55570704    -0.82900
C657        C  0.93897876  0.84475250  0.61033463     0.98100
C658        C  0.95463360  0.81520674  0.55525573     1.04000
O659        O  0.93897327  0.82282162  0.61471558    -0.78500
C660        C  0.03217933  0.91473601  0.61529450     1.02300
Fe661      Fe  0.91770422  0.80066930  0.86699878     1.65800
Fe662      Fe  0.95875804  0.85275505  0.90433064     1.73200
Fe663      Fe  0.98628062  0.82260849  0.87308802     1.54400
O664        O  0.96498204  0.78114720  0.88099837    -0.82300
O665        O  0.99639418  0.88308096  0.89108568    -0.80600
O666        O  0.92233222  0.76690748  0.86859011    -0.84800
O667        O  0.93434097  0.81056213  0.83378591    -0.79600
O668        O  0.00312453  0.83042314  0.90612041    -0.81400
O669        O  0.94011339  0.86768945  0.88339526    -0.84200
C670        C  0.95649946  0.81321393  0.82584521     0.96600
C671        C  0.94026215  0.76208597  0.87661316     1.04000
O672        O  0.95416670  0.82537542  0.88141044    -1.13100
O673        O  0.92229194  0.82601568  0.92069282    -0.75600
O674        O  0.89746175  0.78843122  0.89883727    -0.79100
O675        O  0.97511294  0.81458409  0.83888080    -0.79800
C676        C  0.90169959  0.80183585  0.91762816     0.95500
O677        O  0.90766750  0.83087819  0.86407703    -0.77700
O678        O  0.97705749  0.84022977  0.92781926    -0.82900
C679        C  0.01233281  0.88493719  0.87477218     0.98100
C680        C  0.99567678  0.83454090  0.92564709     1.04000
O681        O  0.00979885  0.86398029  0.86446671    -0.78500
C682        C  0.91878087  0.85586269  0.87056205     1.02300
Fe683      Fe  0.11379178  0.93616149  0.11478335     1.65800
Fe684      Fe  0.10072019  0.97188985  0.07566598     1.73200
Fe685      Fe  0.16081486  0.00409661  0.10453016     1.54400
O686        O  0.16064023  0.99548371  0.13927578    -0.82300
O687        O  0.13052532  0.98593063  0.05031057    -0.80600
O688        O  0.12177104  0.95566018  0.14662422    -0.84800
O689        O  0.15324363  0.94268030  0.11312744    -0.79600
O690        O  0.14136812  0.02563514  0.11345858    -0.81400
O691        O  0.08549084  0.93242263  0.06410612    -0.84200
C692        C  0.17607230  0.95992896  0.10340605     0.96600
C693        C  0.14282338  0.97816892  0.15334685     1.04000
O694        O  0.12517122  0.97052549  0.09830947    -1.13100
O695        O  0.06937307  0.95784170  0.09949343    -0.75600
O696        O  0.07266445  0.92537916  0.11812009    -0.79100
O697        O  0.18152267  0.98365495  0.09659847    -0.79800
C698        C  0.05932714  0.93689963  0.11268627     0.95500
O699        O  0.10452737  0.91331981  0.08433285    -0.77700
O700        O  0.11178552  0.01161048  0.08405911    -0.82900
C701        C  0.15403038  0.00805554  0.05123874     0.98100
C702        C  0.12337921  0.02717547  0.10146426     1.04000
O703        O  0.16629281  0.01842939  0.07039890    -0.78500
C704        C  0.08990136  0.91310915  0.06760951     1.02300
Fe705      Fe  0.18084101  0.14080423  0.86501653     1.65800
Fe706      Fe  0.12103351  0.11679330  0.89376523     1.73200
Fe707      Fe  0.15511024  0.18249587  0.87426656     1.54400
O708        O  0.19460790  0.20322878  0.88777840    -0.82300
O709        O  0.09310789  0.12597364  0.88092284    -0.80600
O710        O  0.21284054  0.18076530  0.87161916    -0.84800
O711        O  0.17505398  0.15184703  0.83243479    -0.79600
O712        O  0.14068990  0.18190915  0.90772328    -0.81400
O713        O  0.11144789  0.09068825  0.86598908    -0.84200
C714        C  0.17257506  0.17179774  0.82590913     0.96600
C715        C  0.21513260  0.20102493  0.88293061     1.04000
O716        O  0.15236747  0.14683299  0.87770429    -1.13100
O717        O  0.14425922  0.10254967  0.90847737    -0.75600
O718        O  0.18805768  0.12884977  0.89704207    -0.79100
O719        O  0.16920167  0.18697063  0.84017222    -0.79800
C720        C  0.16954825  0.11001458  0.90984946     0.95500
O721        O  0.15325982  0.09948174  0.85677084    -0.77700
O722        O  0.12841317  0.14090277  0.92273365    -0.82900
C723        C  0.09351830  0.14334147  0.86696615     0.98100
C724        C  0.13319388  0.16526379  0.92476249     1.04000
O725        O  0.11563949  0.16507599  0.86077947    -0.78500
C726        C  0.12710758  0.08362196  0.85687177     1.02300
Fe727      Fe  0.83716000  0.05860102  0.86906273     1.65800
Fe728      Fe  0.85101463  0.02496116  0.91060482     1.73200
Fe729      Fe  0.79270691  0.98948699  0.87847832     1.54400
O730        O  0.76959498  0.00754459  0.88552866    -0.82300
O731        O  0.84721024  0.98898788  0.89888313    -0.80600
O732        O  0.79706080  0.05012577  0.87132440    -0.84800
O733        O  0.83006131  0.03955515  0.83711020    -0.79600
O734        O  0.78519465  0.97388697  0.91189726    -0.81400
O735        O  0.88568302  0.04578587  0.89019939    -0.84200
C736        C  0.81062394  0.01641908  0.82976260     0.96600
C737        C  0.77427422  0.03140700  0.88017975     1.04000
O738        O  0.82705177  0.02449502  0.88607207    -1.13100
O739        O  0.85759399  0.06088265  0.92485265    -0.75600
O740        O  0.84620788  0.08233227  0.89891703    -0.79100
O741        O  0.79369941  0.99770957  0.84341569    -0.79800
C742        C  0.85463400  0.08056981  0.91885071     0.95500
O743        O  0.87839697  0.07106317  0.86514334    -0.77700
O744        O  0.81949700  0.00420766  0.93422124    -0.82900
C745        C  0.83490163  0.97172749  0.88254655     0.98100
C746        C  0.79630154  0.98212070  0.93166816     1.04000
O747        O  0.81469417  0.97015570  0.87139543    -0.78500
C748        C  0.89381901  0.06353747  0.87409583     1.02300
Fe749      Fe  0.02920351  0.18523969  0.11622494     1.65800
Fe750      Fe  0.98270039  0.12706469  0.08742454     1.73200
Fe751      Fe  0.96118979  0.16692769  0.11251869     1.54400
O752        O  0.97442071  0.17804434  0.14617511    -0.82300
O753        O  0.96346549  0.13615833  0.06174983    -0.80600
O754        O  0.01557692  0.18234030  0.15013542    -0.84800
O755        O  0.02729821  0.22009221  0.10981588    -0.79600
O756        O  0.93479442  0.12744794  0.12488473    -0.81400
O757        O  0.01857503  0.14776314  0.06864231    -0.84200
C758        C  0.00949646  0.22553701  0.10267421     0.96600
C759        C  0.99411983  0.18077386  0.15865700     1.04000
O760        O  0.99104393  0.15979314  0.10535895    -1.13100
O761        O  0.00156900  0.11475071  0.11081690    -0.75600
O762        O  0.03758271  0.15432268  0.12332008    -0.79100
O763        O  0.98397887  0.20729943  0.10128725    -0.79800
C764        C  0.02508607  0.12829367  0.12053366     0.95500
O765        O  0.04624381  0.18985547  0.08330081    -0.77700
O766        O  0.94616206  0.10161195  0.10438569    -0.82900
C767        C  0.94821931  0.14633331  0.06162491     0.98100
C768        C  0.93127292  0.10432200  0.11917178     1.04000
O769        O  0.94398073  0.15646324  0.07964138    -0.78500
C770        C  0.04066051  0.17132597  0.06816851     1.02300
Fe771      Fe  0.76927728  0.85021661  0.11672369     1.65800
Fe772      Fe  0.82624679  0.87166158  0.08269088     1.73200
Fe773      Fe  0.79607050  0.80860820  0.10882138     1.54400
O774        O  0.78754205  0.80876619  0.14369079    -0.82300
O775        O  0.82366864  0.84406482  0.05806708    -0.80600
O776        O  0.77533576  0.83963958  0.14938585    -0.84800
O777        O  0.73722462  0.81076478  0.10996086    -0.79600
O778        O  0.83773903  0.82919734  0.11783609    -0.81400
O779        O  0.79821009  0.87550895  0.06329233    -0.84200
C780        C  0.73437524  0.78849076  0.10240800     0.96600
C781        C  0.78177796  0.82284717  0.15700673     1.04000
O782        O  0.79715707  0.84346111  0.10266983    -1.13100
O783        O  0.83393994  0.90392119  0.10405434    -0.75600
O784        O  0.79681281  0.89055662  0.12581113    -0.79100
O785        O  0.75447373  0.78483608  0.09993973    -0.79800
C786        C  0.82099174  0.90855228  0.11946202     0.95500
O787        O  0.76092092  0.86247595  0.08535839    -0.77700
O788        O  0.85671351  0.87038871  0.10057055    -0.82900
C789        C  0.81608126  0.81880149  0.05777252     0.98100
C790        C  0.85831009  0.85314814  0.11334761     1.04000
O791        O  0.80525976  0.80325602  0.07522774    -0.78500
C792        C  0.77435426  0.87169879  0.06649895     1.02300
C793        C  0.86578917  0.03618254  0.12636490    -0.11400
C794        C  0.87484872  0.02312121  0.14147418     0.05700
C795        C  0.90035340  0.03906198  0.15284344    -0.10200
C796        C  0.91778130  0.06686807  0.14725875    -0.11800
C797        C  0.90981184  0.07910391  0.13043845    -0.01600
C798        C  0.88330239  0.06404242  0.12075384    -0.10700
C799        C  0.86080554  0.99269105  0.14122540     0.05700
H800        H  0.90771751  0.02947194  0.16460836     0.07600
H801        H  0.93838493  0.07821631  0.15462468     0.11100
H802        H  0.87712382  0.07311924  0.10740199     0.11400
H803        H  0.84637827  0.02428023  0.11714586     0.07700
C804        C  0.83185001  0.97588099  0.14190888    -0.11400
C805        C  0.81874744  0.94780685  0.13640988    -0.10700
C806        C  0.83445180  0.93639513  0.12967662    -0.01600
C807        C  0.86337708  0.95279556  0.13053091    -0.11800
C808        C  0.87642868  0.98062449  0.13642153    -0.10200
H809        H  0.81941008  0.98474290  0.14559655     0.07700
H810        H  0.79637256  0.93549850  0.13591525     0.11400
H811        H  0.87591093  0.94437264  0.12564674     0.11100
H812        H  0.89877340  0.99314100  0.13550186     0.07700
C813        C  0.75363370  0.91811292  0.96802624    -0.11400
C814        C  0.76367940  0.92800098  0.99043502     0.05700
C815        C  0.78203814  0.95650121  0.99370434    -0.10200
C816        C  0.79156015  0.97447118  0.97473846    -0.11800
C817        C  0.78265181  0.96435997  0.95214739    -0.01600
C818        C  0.76286994  0.93612131  0.94909767    -0.10700
C819        C  0.75857672  0.90860638  0.00968443     0.05700
H820        H  0.79045154  0.96466111  0.01072801     0.07600
H821        H  0.80680353  0.99609640  0.97765893     0.11100
H822        H  0.75570740  0.92763222  0.93191212     0.11400
H823        H  0.73946538  0.89625291  0.96502688     0.07700
C824        C  0.75412690  0.91435834  0.03246607    -0.11400
C825        C  0.75609481  0.89989832  0.05124984    -0.10700
C826        C  0.76299764  0.87988534  0.04744692    -0.01600
C827        C  0.76500292  0.87246586  0.02464171    -0.11800
C828        C  0.76252510  0.88650253  0.00589350    -0.10200
H829        H  0.75082974  0.93115341  0.03581440     0.07700
H830        H  0.75477708  0.90610057  0.06875155     0.11400
H831        H  0.77048121  0.85715640  0.02140508     0.11100
H832        H  0.76620088  0.88169293  0.98857836     0.07700
C833        C  0.90239175  0.14155416  0.95429672    -0.11400
C834        C  0.88988997  0.13250809  0.97619652     0.05700
C835        C  0.86225130  0.11055998  0.97738402    -0.10200
C836        C  0.84883280  0.09542748  0.95746623    -0.11800
C837        C  0.86266814  0.10240076  0.93610528    -0.01600
C838        C  0.88879439  0.12656549  0.93431456    -0.10700
C839        C  0.90700131  0.14110188  0.99753047     0.05700
H840        H  0.85215073  0.10303955  0.99400397     0.07600
H841        H  0.82882057  0.07657255  0.95917167     0.11100
H842        H  0.89994465  0.13197196  0.91801375     0.11400
H843        H  0.92361134  0.15858342  0.95292674     0.07700
C844        C  0.93151058  0.14069476  0.99765265    -0.11400
C845        C  0.94515039  0.14302958  0.01842107    -0.10700
C846        C  0.93479605  0.14614735  0.03956881    -0.01600
C847        C  0.91111026  0.14808959  0.03938116    -0.11800
C848        C  0.89717140  0.14532423  0.01854600    -0.10200
H849        H  0.93930024  0.13691743  0.98181567     0.07700
H850        H  0.96349165  0.14173366  0.01796739     0.11400
H851        H  0.90270813  0.15058077  0.05542876     0.11100
H852        H  0.87824641  0.14556788  0.01892110     0.07700
C853        C  0.07766065  0.15534492  0.02263056    -0.11400
C854        C  0.09504957  0.18103688  0.01211407     0.05700
C855        C  0.09564701  0.20443108  0.02102778    -0.10200
C856        C  0.07870507  0.20190974  0.03987041    -0.11800
C857        C  0.06056798  0.17584963  0.04960260    -0.01600
C858        C  0.06070369  0.15280857  0.04103284    -0.10700
C859        C  0.11049129  0.18218183  0.99088388     0.05700
H860        H  0.10895431  0.22452278  0.01327850     0.07600
H861        H  0.07909235  0.22000158  0.04627930     0.11100
H862        H  0.04728443  0.13249437  0.04841073     0.11400
H863        H  0.07629091  0.13684023  0.01603775     0.07700
C864        C  0.12213810  0.16569589  0.98927385    -0.11400
C865        C  0.13086494  0.16137403  0.96792175    -0.10700
C866        C  0.12865911  0.17386378  0.94774141    -0.01600
C867        C  0.11931980  0.19229562  0.94961772    -0.11800
C868        C  0.11017023  0.19632437  0.97101658    -0.10200
H869        H  0.12320331  0.15498189  0.00437741     0.07700
H870        H  0.13839195  0.14741135  0.96704164     0.11400
H871        H  0.11736385  0.20215141  0.93429995     0.11100
H872        H  0.10114210  0.20899168  0.97167163     0.07700
C873        C  0.96515056  0.11526330  0.85058324    -0.11400
C874        C  0.97946860  0.10185222  0.85546904     0.05700
C875        C  0.96489357  0.07518990  0.86500068    -0.10200
C876        C  0.93691189  0.06252266  0.87025878    -0.11800
C877        C  0.92268020  0.07612399  0.86602583    -0.01600
C878        C  0.93687674  0.10236869  0.85562944    -0.10700
C879        C  0.00985632  0.11591028  0.85260852     0.05700
H880        H  0.97541743  0.06448724  0.86934803     0.07600
H881        H  0.92653862  0.04225462  0.87814903     0.11100
H882        H  0.92640523  0.11335283  0.85224411     0.11400
H883        H  0.97590626  0.13579988  0.84322041     0.07700
C884        C  0.02144690  0.10084468  0.84459566    -0.11400
C885        C  0.04956398  0.11117683  0.84743128    -0.10700
C886        C  0.06670437  0.13696572  0.85788086    -0.01600
C887        C  0.05585742  0.15333985  0.86379062    -0.11800
C888        C  0.02749497  0.14283025  0.86118813    -0.10200
H889        H  0.00842630  0.08026678  0.83755712     0.07700
H890        H  0.05764342  0.09825130  0.84285065     0.11400
H891        H  0.06877143  0.17312435  0.87221482     0.11100
H892        H  0.01907666  0.15481254  0.86763578     0.07700
C893        C  0.98843468  0.92621655  0.12070309    -0.11400
C894        C  0.97324533  0.89934640  0.12982339     0.05700
C895        C  0.98733139  0.88587840  0.13547916    -0.10200
C896        C  0.01573772  0.89857965  0.13110169    -0.11800
C897        C  0.03051269  0.92492949  0.12088966    -0.01600
C898        C  0.01663226  0.93883309  0.11637225    -0.10700
C899        C  0.94258585  0.88496218  0.13104782     0.05700
H900        H  0.97626637  0.86527117  0.14272370     0.07600
H901        H  0.02583683  0.88732143  0.13480852     0.11100
H902        H  0.02731936  0.95915618  0.10855965     0.11400
H903        H  0.97829464  0.93707632  0.11570158     0.07700
C904        C  0.92996866  0.89996463  0.13634447    -0.11400
C905        C  0.90191856  0.88871748  0.13199044    -0.10700
C906        C  0.88572252  0.86197440  0.12289974    -0.01600
C907        C  0.89748796  0.84583971  0.11980891    -0.11800
C908        C  0.92581484  0.85732450  0.12371795    -0.10200
H909        H  0.94210626  0.92100379  0.14261566     0.07700
H910        H  0.89310409  0.90140470  0.13468300     0.11400
H911        H  0.88532366  0.82522467  0.11263652     0.11100
H912        H  0.93487087  0.84523887  0.11933936     0.07700
C913        C  0.16810180  0.02331940  0.98731301    -0.11400
C914        C  0.17985541  0.05213458  0.98688011     0.05700
C915        C  0.18679148  0.06649250  0.00813108    -0.10200
C916        C  0.18030948  0.05219427  0.02919664    -0.11800
C917        C  0.16632609  0.02323879  0.02944543    -0.01600
C918        C  0.16099617  0.00900085  0.00834521    -0.10700
C919        C  0.18097036  0.06636639  0.96479818     0.05700
H920        H  0.19550032  0.08857124  0.00858488     0.07600
H921        H  0.18439392  0.06363658  0.04525435     0.11100
H922        H  0.15043325  0.98668189  0.00809748     0.11400
H923        H  0.16316143  0.01161110  0.97134020     0.07700
C924        C  0.20135948  0.09432297  0.96075025    -0.11400
C925        C  0.19908769  0.10855069  0.94179866    -0.10700
C926        C  0.17630174  0.09502942  0.92680883    -0.01600
C927        C  0.15714439  0.06676689  0.92992988    -0.11800
C928        C  0.15939046  0.05265173  0.94862923    -0.10200
H929        H  0.21848340  0.10543188  0.97266050     0.07700
H930        H  0.21411414  0.13036846  0.93970139     0.11400
H931        H  0.13949558  0.05581891  0.91845265     0.11100
H932        H  0.14302915  0.03137140  0.95116107     0.07700
C933        C  0.08269536  0.11476216  0.13321049    -0.11400
C934        C  0.07025191  0.08714964  0.12601360     0.05700
C935        C  0.04174706  0.07216011  0.12129120    -0.10200
C936        C  0.02650244  0.08502296  0.12167554    -0.11800
C937        C  0.03938428  0.11336961  0.12663506    -0.01600
C938        C  0.06741063  0.12780383  0.13344926    -0.10700
C939        C  0.08701475  0.07486801  0.11985134     0.05700
H940        H  0.03155451  0.05073809  0.11595714     0.07600
H941        H  0.00498922  0.07309596  0.11650864     0.11100
H942        H  0.07803374  0.14963570  0.13741174     0.11400
H943        H  0.10462766  0.12677728  0.13694489     0.07700
C944        C  0.08373196  0.06339966  0.09768025    -0.11400
C945        C  0.09711927  0.04968085  0.09155004    -0.10700
C946        C  0.11409214  0.04658448  0.10747459    -0.01600
C947        C  0.11873494  0.05937642  0.12937986    -0.11800
C948        C  0.10540450  0.07361708  0.13547137    -0.10200
H949        H  0.07025155  0.06462028  0.08509247     0.07700
H950        H  0.09324584  0.04055702  0.07439956     0.11400
H951        H  0.13163147  0.05738172  0.14206751     0.11100
H952        H  0.10849618  0.08256979  0.15263071     0.07700
C953        C  0.83635870  0.77883222  0.01848795    -0.11400
C954        C  0.83815044  0.79093256  0.99681133     0.05700
C955        C  0.83059081  0.81074603  0.99507080    -0.10200
C956        C  0.82252948  0.81916890  0.01476055    -0.11800
C957        C  0.82129950  0.80753276  0.03653995    -0.01600
C958        C  0.82766918  0.78681151  0.03812476    -0.10700
C959        C  0.85107611  0.78579239  0.97663238     0.05700
H960        H  0.83229518  0.82077828  0.97865808     0.07600
H961        H  0.81785186  0.83524709  0.01305717     0.11100
H962        H  0.82723837  0.77775117  0.05475691     0.11400
H963        H  0.84231936  0.76370593  0.02030742     0.07700
C964        C  0.87731348  0.78929310  0.97909477    -0.11400
C965        C  0.89285396  0.79163675  0.95949441    -0.10700
C966        C  0.88224338  0.78997983  0.93714434    -0.01600
C967        C  0.85494762  0.78355449  0.93463930    -0.11800
C968        C  0.83952475  0.78171002  0.95429812    -0.10200
H969        H  0.88677846  0.79267986  0.99605630     0.07700
H970        H  0.91401464  0.79685977  0.96174751     0.11400
H971        H  0.84655789  0.78258687  0.91755236     0.11100
H972        H  0.81925119  0.77883842  0.95201168     0.07700
C973        C  0.86441443  0.87455639  0.86268170    -0.11400
C974        C  0.88083375  0.90355853  0.86242119     0.05700
C975        C  0.90974352  0.91618360  0.86101084    -0.10200
C976        C  0.92202979  0.90046150  0.86219831    -0.11800
C977        C  0.90573110  0.87166017  0.86422800    -0.01600
C978        C  0.87677481  0.85872208  0.86344254    -0.10700
C979        C  0.86853920  0.92080374  0.86651627     0.05700
H980        H  0.92299960  0.93842530  0.86010108     0.07600
H981        H  0.94438015  0.91093876  0.86248622     0.11100
H982        H  0.86372124  0.83652297  0.86512476     0.11400
H983        H  0.84212393  0.86417301  0.86384498     0.07700
C984        C  0.84311247  0.91442713  0.85669519    -0.11400
C985        C  0.83188377  0.93085310  0.86158939    -0.10700
C986        C  0.84574669  0.95367776  0.87661260    -0.01600
C987        C  0.87106813  0.95978253  0.88634526    -0.11800
C988        C  0.88218153  0.94363249  0.88144354    -0.10200
H989        H  0.83206643  0.89693025  0.84513276     0.07700
H990        H  0.81237773  0.92561284  0.85379265     0.11400
H991        H  0.88253880  0.97720364  0.89792508     0.11100
H992        H  0.90137534  0.94881557  0.88983934     0.07700
C993        C  0.00764003  0.82571789  0.98817041    -0.11400
C994        C  0.03649861  0.84363543  0.98993450     0.05700
C995        C  0.05200643  0.85391662  0.96935695    -0.10200
C996        C  0.03869003  0.84879071  0.94787501    -0.11800
C997        C  0.00974499  0.83386768  0.94676038    -0.01600
C998        C  0.99435304  0.82142303  0.96686120    -0.10700
C999        C  0.04936714  0.85569238  0.01284994     0.05700
H1000       H  0.07420057  0.86784805  0.96992897     0.07600
H1001       H  0.05088813  0.85852079  0.93246731     0.11100
H1002       H  0.97196360  0.80942103  0.96622966     0.11400
H1003       H  0.99508772  0.81655016  0.00350086     0.07700
C1004       C  0.03448614  0.86153484  0.02894436    -0.11400
C1005       C  0.04758469  0.87816402  0.04810491    -0.10700
C1006       C  0.07588576  0.88951297  0.05173494    -0.01600
C1007       C  0.09059475  0.88215647  0.03694264    -0.11800
C1008       C  0.07736760  0.86525957  0.01757162    -0.10200
H1009       H  0.01318472  0.85526350  0.02586838     0.07700
H1010       H  0.03599186  0.88387913  0.05924943     0.11400
H1011       H  0.11258419  0.89105645  0.03935858     0.11100
H1012       H  0.08937742  0.86090726  0.00569729     0.07700
C1013       C  0.06416121  0.96132977  0.87733709    -0.11400
C1014       C  0.07056342  0.96778825  0.85383854     0.05700
C1015       C  0.05961088  0.94659814  0.83723661    -0.10200
C1016       C  0.04174868  0.91914296  0.84412908    -0.11800
C1017       C  0.03423281  0.91286496  0.86759164    -0.01600
C1018       C  0.04600157  0.93414461  0.88414739    -0.10700
C1019       C  0.08651288  0.99702498  0.84714829     0.05700
H1020       H  0.06426411  0.95139157  0.81900459     0.07600
H1021       H  0.03273330  0.90306246  0.83105997     0.11100
H1022       H  0.04061743  0.92981128  0.90233594     0.11400
H1023       H  0.07238716  0.97755031  0.89031076     0.07700
C1024       C  0.07236945  0.01051987  0.84223416    -0.11400
C1025       C  0.08625564  0.03929949  0.84307097    -0.10700
C1026       C  0.11452323  0.05490785  0.84864539    -0.01600
C1027       C  0.12917032  0.04138322  0.85115508    -0.11800
C1028       C  0.11514826  0.01256390  0.85071817    -0.10200
H1029       H  0.05016793  0.99873687  0.83976070     0.07700
H1030       H  0.07449284  0.04921107  0.84109151     0.11400
H1031       H  0.15088643  0.05286480  0.85573552     0.11100
H1032       H  0.12623042  0.00238627  0.85490203     0.07700
C1033       C  0.00405441  0.84364092  0.71874975    -0.11400
C1034       C  0.97934331  0.82119648  0.72749030     0.05700
C1035       C  0.96076475  0.80064362  0.71216036    -0.10200
C1036       C  0.96649334  0.80274687  0.68845690    -0.11800
C1037       C  0.99090118  0.82552851  0.67956082    -0.01600
C1038       C  0.00978504  0.84580351  0.69500171    -0.10700
C1039       C  0.97311022  0.81910840  0.75258241     0.05700
H1040       H  0.94182444  0.78290419  0.71853212     0.07600
H1041       H  0.95154818  0.78667041  0.67705623     0.11100
H1042       H  0.02863903  0.86368704  0.68869021     0.11400
H1043       H  0.01865709  0.85985273  0.73023982     0.07700
C1044       C  0.99373084  0.82450319  0.76877213    -0.11400
C1045       C  0.98811125  0.82250176  0.79243500    -0.10700
C1046       C  0.96172035  0.81515642  0.80054874    -0.01600
C1047       C  0.94104360  0.80987845  0.78434754    -0.11800
C1048       C  0.94666829  0.81170301  0.76053007    -0.10200
H1049       H  0.01416784  0.82994651  0.76311058     0.07700
H1050       H  0.00461967  0.82682632  0.80439174     0.11400
H1051       H  0.92057123  0.80423239  0.79005266     0.11100
H1052       H  0.93047553  0.80766181  0.74831608     0.07700
C1053       C  0.78632703  0.83766336  0.22156596    -0.11400
C1054       C  0.78997688  0.81692310  0.23079790     0.05700
C1055       C  0.79022709  0.79774014  0.21556271    -0.10200
C1056       C  0.78711016  0.79937499  0.19166435    -0.11800
C1057       C  0.78350123  0.82014013  0.18244007    -0.01600
C1058       C  0.78304184  0.83920203  0.19769131    -0.10700
C1059       C  0.79333101  0.81524361  0.25622200     0.05700
H1060       H  0.79257271  0.78126765  0.22212941     0.07600
H1061       H  0.78757712  0.78436747  0.18040763     0.11100
H1062       H  0.78068424  0.85568441  0.19115068     0.11400
H1063       H  0.78649240  0.85304852  0.23276392     0.07700
C1064       C  0.81192262  0.80818160  0.26500312    -0.11400
C1065       C  0.81498364  0.80665655  0.28895665    -0.10700
C1066       C  0.79953106  0.81219184  0.30465319    -0.01600
C1067       C  0.78094047  0.81921431  0.29582488    -0.11800
C1068       C  0.77786606  0.82069054  0.27194290    -0.10200
H1069       H  0.82441910  0.80421537  0.25336025     0.07700
H1070       H  0.82954310  0.80127628  0.29516100     0.11400
H1071       H  0.76863830  0.82355412  0.30737773     0.11100
H1072       H  0.76305462  0.82575300  0.26578983     0.07700
C1073       C  0.86420560  0.78098227  0.47982106    -0.11400
C1074       C  0.88749621  0.77943871  0.47461636     0.05700
C1075       C  0.89449562  0.77906179  0.45128378    -0.10200
C1076       C  0.87952030  0.78210632  0.43350450    -0.11800
C1077       C  0.85787070  0.78625474  0.43894067    -0.01600
C1078       C  0.84969496  0.78464621  0.46214786    -0.10700
C1079       C  0.90682294  0.78349100  0.49353323     0.05700
H1080       H  0.91250039  0.77807046  0.44692353     0.07600
H1081       H  0.88642455  0.78372666  0.41572772     0.11100
H1082       H  0.83320912  0.78805157  0.46670804     0.11400
H1083       H  0.85866702  0.78176731  0.49767630     0.07700
C1084       C  0.93425548  0.80580701  0.49233045    -0.11400
C1085       C  0.95063051  0.81499446  0.51225079    -0.10700
C1086       C  0.93998313  0.80172536  0.53359105    -0.01600
C1087       C  0.91355487  0.77772341  0.53431086    -0.11800
C1088       C  0.89695222  0.76883460  0.51443920    -0.10200
H1089       H  0.94224608  0.81760682  0.47647419     0.07700
H1090       H  0.97106592  0.83343006  0.51126298     0.11400
H1091       H  0.90491291  0.76718303  0.55058996     0.11100
H1092       H  0.87583554  0.75158683  0.51571385     0.07700
C1093       C  0.80839478  0.01413292  0.71449657    -0.11400
C1094       C  0.79985972  0.99289022  0.73085808     0.05700
C1095       C  0.78890823  0.96571589  0.72279574    -0.10200
C1096       C  0.78657230  0.95996694  0.69896471    -0.11800
C1097       C  0.79505674  0.98123462  0.68262236    -0.01600
C1098       C  0.80603365  0.00840249  0.69072274    -0.10700
C1099       C  0.80243719  0.99910612  0.75619450     0.05700
H1100       H  0.78247564  0.94891325  0.73491470     0.07600
H1101       H  0.77806655  0.93883422  0.69335814     0.11100
H1102       H  0.81278327  0.02534176  0.67868095     0.11400
H1103       H  0.81656115  0.03522475  0.72005871     0.07700
C1104       C  0.82563740  0.02320784  0.76505410    -0.11400
C1105       C  0.82815028  0.02900330  0.78884978    -0.10700
C1106       C  0.80758634  0.01078465  0.80441148    -0.01600
C1107       C  0.78430852  0.98675685  0.79554677    -0.11800
C1108       C  0.78174759  0.98102793  0.77174326    -0.10200
H1109       H  0.84214540  0.03740038  0.75363078     0.07700
H1110       H  0.84642431  0.04759344  0.79508358     0.11400
H1111       H  0.76798659  0.97233231  0.80700659     0.11100
H1112       H  0.76339588  0.96253232  0.76548746     0.07700
C1113       C  0.73803545  0.84065731  0.46972920    -0.11400
C1114       C  0.74959882  0.84240154  0.49169299     0.05700
C1115       C  0.77075204  0.83671154  0.49374582    -0.10200
C1116       C  0.78175005  0.83170949  0.47404567    -0.11800
C1117       C  0.77154111  0.83188248  0.45190075    -0.01600
C1118       C  0.74875177  0.83515667  0.44998943    -0.10700
C1119       C  0.74420622  0.85556795  0.51147066     0.05700
H1120       H  0.78034374  0.83833402  0.51039870     0.07600
H1121       H  0.79913900  0.82900616  0.47605335     0.11100
H1122       H  0.74045141  0.83535147  0.43311948     0.11400
H1123       H  0.72179134  0.84508165  0.46771804     0.07700
C1124       C  0.74770704  0.88165933  0.50819135    -0.11400
C1125       C  0.75257009  0.89887507  0.52716122    -0.10700
C1126       C  0.75341466  0.89007329  0.54970123    -0.01600
C1127       C  0.74642381  0.86278474  0.55328427    -0.11800
C1128       C  0.74202269  0.84564448  0.53420892    -0.10200
H1129       H  0.74976499  0.88994584  0.49089660     0.07700
H1130       H  0.75816083  0.91998188  0.52407698     0.11400
H1131       H  0.74732342  0.85576953  0.57053131     0.11100
H1132       H  0.73929567  0.82555659  0.53712857     0.07700
C1133       C  0.83828858  0.86985602  0.62954221    -0.11400
C1134       C  0.86734886  0.88435400  0.62832421     0.05700
C1135       C  0.88177194  0.91306043  0.62468296    -0.10200
C1136       C  0.86758102  0.92667798  0.62119229    -0.11800
C1137       C  0.83858767  0.91207481  0.62151447    -0.01600
C1138       C  0.82403692  0.88365458  0.62637042    -0.10700
C1139       C  0.88283693  0.86979451  0.62860314     0.05700
H1140       H  0.90408605  0.92487608  0.62324201     0.07600
H1141       H  0.87930289  0.94858148  0.61742792     0.11100
H1142       H  0.80164930  0.87187228  0.62645727     0.11400
H1143       H  0.82658337  0.84777655  0.63240297     0.07700
C1144       C  0.90914093  0.88238097  0.63894579    -0.11400
C1145       C  0.92653734  0.87239118  0.63466418    -0.10700
C1146       C  0.91785198  0.84929171  0.62036402    -0.01600
C1147       C  0.89073619  0.83507227  0.61175108    -0.11800
C1148       C  0.87331944  0.84525613  0.61583872    -0.10200
H1149       H  0.91691446  0.90095545  0.64924170     0.07700
H1150       H  0.94749885  0.88377799  0.64130617     0.11400
H1151       H  0.88385807  0.81752316  0.60030982     0.11100
H1152       H  0.85327617  0.83515955  0.60748006     0.07700
C1153       C  0.17123541  0.01922509  0.20882574    -0.11400
C1154       C  0.15384640  0.00029168  0.22565335     0.05700
C1155       C  0.13316628  0.97355016  0.21868111    -0.10200
C1156       C  0.12965486  0.96608375  0.19522437    -0.11800
C1157       C  0.14691484  0.98517515  0.17834784    -0.01600
C1158       C  0.16788538  0.01174093  0.18546445    -0.10700
C1159       C  0.15734457  0.00842559  0.25041774     0.05700
H1160       H  0.11936277  0.95859304  0.23133684     0.07600
H1161       H  0.11332819  0.94548399  0.19030677     0.11100
H1162       H  0.18156954  0.02698791  0.17293678     0.11400
H1163       H  0.18757664  0.03981109  0.21376209     0.07700
C1164       C  0.15627081  0.99034884  0.26743798    -0.11400
C1165       C  0.15901593  0.99759224  0.29081342    -0.10700
C1166       C  0.16280245  0.02308545  0.29780869    -0.01600
C1167       C  0.16432324  0.04142850  0.28073940    -0.11800
C1168       C  0.16168166  0.03417109  0.25723190    -0.10200
H1169       H  0.15340786  0.97059781  0.26265268     0.07700
H1170       H  0.15783881  0.98293832  0.30344125     0.11400
H1171       H  0.16707821  0.06112286  0.28554529     0.11100
H1172       H  0.16240842  0.04842385  0.24440281     0.07700
C1173       C  0.07525703  0.90070423  0.50233808    -0.11400
C1174       C  0.09807027  0.92766894  0.50514610     0.05700
C1175       C  0.10728945  0.93785702  0.52769138    -0.10200
C1176       C  0.09268313  0.92209558  0.54705994    -0.11800
C1177       C  0.06844009  0.89621924  0.54406412    -0.01600
C1178       C  0.06034106  0.88525877  0.52164319    -0.10700
C1179       C  0.10934238  0.94612585  0.48472859     0.05700
H1180       H  0.12487077  0.95856495  0.53026303     0.07600
H1181       H  0.09890749  0.93109370  0.56422462     0.11100
H1182       H  0.04141988  0.86550073  0.51901936     0.11400
H1183       H  0.06757872  0.89245910  0.48516716     0.07700
C1184       C  0.11502102  0.93700518  0.46403308    -0.11400
C1185       C  0.12165002  0.95283124  0.44383361    -0.10700
C1186       C  0.12232870  0.97793265  0.44381924    -0.01600
C1187       C  0.11756708  0.98746278  0.46476417    -0.11800
C1188       C  0.11128976  0.97178370  0.48502830    -0.10200
H1189       H  0.11363541  0.91729429  0.46337161     0.07700
H1190       H  0.12528349  0.94488579  0.42802562     0.11400
H1191       H  0.11802506  0.00671482  0.46538616     0.11100
H1192       H  0.10660076  0.97909064  0.50069581     0.07700
C1193       C  0.01921109  0.91317653  0.35482130    -0.11400
C1194       C  0.00138493  0.92284267  0.35042452     0.05700
C1195       C  0.01271235  0.95106369  0.34615166    -0.10200
C1196       C  0.04090336  0.96968517  0.34903103    -0.11800
C1197       C  0.05832110  0.96033293  0.35570900    -0.01600
C1198       C  0.04765972  0.93190119  0.35735710    -0.10700
C1199       C  0.97133276  0.90489874  0.35454036     0.05700
H1200       H  0.99943916  0.95894224  0.34230805     0.07600
H1201       H  0.04887034  0.99158314  0.34747839     0.11100
H1202       H  0.06085091  0.92438923  0.36262702     0.11400
H1203       H  0.01094427  0.89152088  0.35826862     0.07700
C1204       C  0.95595580  0.87772214  0.34604559    -0.11400
C1205       C  0.92793871  0.86069784  0.35184898    -0.10700
C1206       C  0.91517024  0.87053361  0.36653665    -0.01600
C1207       C  0.93061805  0.89781584  0.37469860    -0.11800
C1208       C  0.95828213  0.91473902  0.36876984    -0.10200
H1209       H  0.96564935  0.86967427  0.33513051     0.07700
H1210       H  0.91650754  0.83969233  0.34538705     0.11400
H1211       H  0.92142068  0.90607568  0.38597779     0.11100
H1212       H  0.96975661  0.93538810  0.37600306     0.07700
C1213       C  0.18132129  0.18480103  0.71072891    -0.11400
C1214       C  0.16281413  0.18441022  0.72714002     0.05700
C1215       C  0.13990572  0.18534888  0.71916395    -0.10200
C1216       C  0.13567263  0.18673846  0.69539735    -0.11800
C1217       C  0.15420602  0.18712611  0.67901414    -0.01600
C1218       C  0.17704493  0.18608328  0.68699812    -0.10700
C1219       C  0.16716198  0.18265051  0.75242993     0.05700
H1220       H  0.12494924  0.18457203  0.73129005     0.07600
H1221       H  0.11778534  0.18733243  0.68986598     0.11100
H1222       H  0.19180078  0.18639920  0.67489615     0.11400
H1223       H  0.19935272  0.18445952  0.71622463     0.07700
C1224       C  0.17695677  0.16602816  0.76058896    -0.11400
C1225       C  0.17961394  0.16321523  0.78440454    -0.10700
C1226       C  0.17260993  0.17701535  0.80066227    -0.01600
C1227       C  0.16370770  0.19435903  0.79248891    -0.11800
C1228       C  0.16098034  0.19710778  0.76868522    -0.10200
H1229       H  0.18171693  0.15441941  0.74859891     0.07700
H1230       H  0.18657557  0.14972810  0.79008490     0.11400
H1231       H  0.15811433  0.20528989  0.80450653     0.11100
H1232       H  0.15390201  0.21049507  0.76301447     0.07700
C1233       C  0.18269654  0.17860738  0.48863232    -0.11400
C1234       C  0.19334269  0.16122821  0.48705096     0.05700
C1235       C  0.19964526  0.15240460  0.50762036    -0.10200
C1236       C  0.19214599  0.15792798  0.52915706    -0.11800
C1237       C  0.17793997  0.17198295  0.53029564    -0.01600
C1238       C  0.17460288  0.18352181  0.51002439    -0.10700
C1239       C  0.19138178  0.14723432  0.46474263     0.05700
H1240       H  0.20782116  0.13898587  0.50700196     0.07600
H1241       H  0.19513125  0.14901889  0.54463258     0.11100
H1242       H  0.16424745  0.19497377  0.51055607     0.11400
H1243       H  0.17833019  0.18635577  0.47310227     0.07700
C1244       C  0.16732473  0.13744343  0.45141412    -0.11400
C1245       C  0.16181933  0.11970187  0.43292343    -0.10700
C1246       C  0.18012181  0.11112012  0.42712911    -0.01600
C1247       C  0.20517792  0.12214677  0.43926531    -0.11800
C1248       C  0.21067950  0.13997905  0.45818735    -0.10200
H1249       H  0.15167976  0.14199043  0.45614644     0.07700
H1250       H  0.14249664  0.11173890  0.42363124     0.11400
H1251       H  0.21960701  0.11580962  0.43499300     0.11100
H1252       H  0.22940925  0.14725993  0.46817017     0.07700
C1253       C  0.94165624  0.05722384  0.59893031    -0.11400
C1254       C  0.95042377  0.07512947  0.61808897     0.05700
C1255       C  0.93057981  0.07569076  0.63222094    -0.10200
C1256       C  0.90231195  0.05798848  0.62754997    -0.11800
C1257       C  0.89366091  0.03966418  0.60857320    -0.01600
C1258       C  0.91370843  0.03974064  0.59427056    -0.10700
C1259       C  0.98041859  0.09342814  0.62226691     0.05700
H1260       H  0.93693166  0.08950034  0.64702870     0.07600
H1261       H  0.88731571  0.05836610  0.63885648     0.11100
H1262       H  0.90785440  0.02620995  0.57930132     0.11400
H1263       H  0.95651077  0.05693111  0.58736444     0.07700
C1264       C  0.99764317  0.08275944  0.61981217    -0.11400
C1265       C  0.02608961  0.10042540  0.61770376    -0.10700
C1266       C  0.03791800  0.12911390  0.61835765    -0.01600
C1267       C  0.02110775  0.13981242  0.62331126    -0.11800
C1268       C  0.99240421  0.12201557  0.62518655    -0.10200
H1269       H  0.98889850  0.06073462  0.61801710     0.07700
H1270       H  0.03871182  0.09169796  0.61425216     0.11400
H1271       H  0.02983817  0.16190542  0.62384755     0.11100
H1272       H  0.97951016  0.13069116  0.62708667     0.07700
C1273       C  0.07750020  0.04003950  0.59913289    -0.11400
C1274       C  0.08585505  0.03168807  0.61875583     0.05700
C1275       C  0.10819734  0.05186901  0.63200212    -0.10200
C1276       C  0.12131461  0.07996737  0.62603679    -0.11800
C1277       C  0.11251260  0.08822449  0.60652522    -0.01600
C1278       C  0.09058552  0.06776980  0.59311570    -0.10700
C1279       C  0.07140961  0.00175365  0.62430405     0.05700
H1280       H  0.11516108  0.04596201  0.64715989     0.07600
H1281       H  0.13803304  0.09517503  0.63678790     0.11100
H1282       H  0.08313481  0.07312703  0.57793772     0.11400
H1283       H  0.06087584  0.02499683  0.58819262     0.07700
C1284       C  0.04255593  0.98522602  0.62176409    -0.11400
C1285       C  0.02932913  0.95653695  0.62105609    -0.10700
C1286       C  0.04461414  0.94367393  0.62311342    -0.01600
C1287       C  0.07297460  0.95997172  0.62832377    -0.11800
C1288       C  0.08632237  0.98886532  0.62885499    -0.10200
H1289       H  0.03041034  0.99458010  0.61882630     0.07700
H1290       H  0.00737912  0.94448322  0.61736592     0.11400
H1291       H  0.08526806  0.95058775  0.62994178     0.11100
H1292       H  0.10855222  0.00107624  0.63093192     0.07700
C1293       C  0.99615315  0.19563787  0.27315754    -0.11400
C1294       C  0.97720935  0.17528494  0.25786534     0.05700
C1295       C  0.95249310  0.15299255  0.26669908    -0.10200
C1296       C  0.94660449  0.15127027  0.29037071    -0.11800
C1297       C  0.96522802  0.17194375  0.30568513    -0.01600
C1298       C  0.99017500  0.19406249  0.29683730    -0.10700
C1299       C  0.98242534  0.17780908  0.23259306     0.05700
H1300       H  0.93771711  0.13686942  0.25523714     0.07600
H1301       H  0.92741372  0.13376730  0.29664389     0.11100
H1302       H  0.00515376  0.21013789  0.30821159     0.11400
H1303       H  0.01528105  0.21307723  0.26670702     0.07700
C1304       C  0.96150615  0.17407702  0.21737671    -0.11400
C1305       C  0.96573751  0.17581467  0.19349111    -0.10700
C1306       C  0.99097255  0.18112803  0.18416435    -0.01600
C1307       C  0.01213308  0.18525662  0.19942869    -0.11800
C1308       C  0.00794142  0.18378882  0.22348408    -0.10200
H1309       H  0.94181008  0.16984954  0.22400313     0.07700
H1310       H  0.94892222  0.17248210  0.18232253     0.11400
H1311       H  0.03174992  0.18929749  0.19280072     0.11100
H1312       H  0.02436431  0.18669154  0.23495213     0.07700
C1313       C  0.85920172  0.05623738  0.45861033    -0.11400
C1314       C  0.84430245  0.06595201  0.47033212     0.05700
C1315       C  0.84756045  0.09125948  0.46349695    -0.10200
C1316       C  0.86610476  0.10686619  0.44564808    -0.11800
C1317       C  0.88193976  0.09753019  0.43495428    -0.01600
C1318       C  0.87774089  0.07179877  0.44122264    -0.10700
C1319       C  0.82834427  0.05078941  0.49121992     0.05700
H1320       H  0.83632074  0.09920057  0.47231565     0.07600
H1321       H  0.86901830  0.12665626  0.44100499     0.11100
H1322       H  0.88945491  0.06396091  0.43304038     0.11400
H1323       H  0.85766373  0.03716584  0.46370131     0.07700
C1324       C  0.81359745  0.02178222  0.49128421    -0.11400
C1325       C  0.80634112  0.00733451  0.51217399    -0.10700
C1326       C  0.81313384  0.02158863  0.53338723    -0.01600
C1327       C  0.82472873  0.05030194  0.53330447    -0.11800
C1328       C  0.83243704  0.06485703  0.51232732    -0.10200
H1329       H  0.80965031  0.01038702  0.47520984     0.07700
H1330       H  0.79692068  0.98513333  0.51176413     0.11400
H1331       H  0.83007886  0.06174632  0.54945920     0.11100
H1332       H  0.84382208  0.08719523  0.51280665     0.07700
C1333       C  0.05549662  0.23174880  0.47124774    -0.11400
C1334       C  0.04581853  0.21754295  0.49238126     0.05700
C1335       C  0.01866936  0.19461369  0.49351454    -0.10200
C1336       C  0.00224516  0.18493349  0.47362451    -0.11800
C1337       C  0.01250645  0.19807578  0.45216049    -0.01600
C1338       C  0.03892089  0.22221000  0.45133788    -0.10700
C1339       C  0.06490665  0.22344400  0.51213348     0.05700
H1340       H  0.01075907  0.18296644  0.50944052     0.07600
H1341       H  0.98195976  0.16634521  0.47486183     0.11100
H1342       H  0.04743307  0.23277236  0.43504989     0.11400
H1343       H  0.07632740  0.24950300  0.46991338     0.07700
C1344       C  0.09048360  0.22586767  0.50806015    -0.11400
C1345       C  0.10502960  0.22320293  0.52634523    -0.10700
C1346       C  0.09456821  0.21868530  0.54901391    -0.01600
C1347       C  0.07067315  0.21933736  0.55352595    -0.11800
C1348       C  0.05584136  0.22157829  0.53516487    -0.10200
H1349       H  0.09788140  0.22703851  0.49052546     0.07700
H1350       H  0.12322710  0.22231150  0.52252509     0.11400
H1351       H  0.06203300  0.21535675  0.57085728     0.11100
H1352       H  0.03627083  0.21982956  0.53877617     0.07700
C1353       C  0.91070843  0.01420627  0.37025210    -0.11400
C1354       C  0.88293738  0.99931914  0.36292316     0.05700
C1355       C  0.87062680  0.01405721  0.35592234    -0.10200
C1356       C  0.88534060  0.04291624  0.35716594    -0.11800
C1357       C  0.91270906  0.05770993  0.36551680    -0.01600
C1358       C  0.92540947  0.04300921  0.37147206    -0.10700
C1359       C  0.86671328  0.96860279  0.36394141     0.05700
H1360       H  0.84941856  0.00324730  0.34989137     0.07600
H1361       H  0.87487448  0.05354521  0.35245692     0.11100
H1362       H  0.94634460  0.05364893  0.37815488     0.11400
H1363       H  0.92076164  0.00356146  0.37610719     0.07700
C1364       C  0.87941868  0.95373982  0.35854523    -0.11400
C1365       C  0.86580302  0.92545279  0.36274140    -0.10700
C1366       C  0.83899388  0.91124681  0.37200078    -0.01600
C1367       C  0.82540832  0.92548310  0.37605372    -0.11800
C1368       C  0.83922327  0.95403239  0.37212733    -0.10200
H1369       H  0.90028895  0.96414715  0.35177961     0.07700
H1370       H  0.87662844  0.91475259  0.35956522     0.11400
H1371       H  0.80489196  0.91491380  0.38357189     0.11100
H1372       H  0.82894020  0.96489897  0.37670114     0.07700
C1373       C  0.06420740  0.14788598  0.33927192    -0.11400
C1374       C  0.07931131  0.14362203  0.35623508     0.05700
C1375       C  0.07723407  0.14939017  0.37955153    -0.10200
C1376       C  0.05864772  0.15715395  0.38609218    -0.11800
C1377       C  0.04234411  0.15991205  0.36935249    -0.01600
C1378       C  0.04609270  0.15645522  0.34577857    -0.10700
C1379       C  0.09336404  0.12870154  0.35076739     0.05700
H1380       H  0.08846032  0.14585397  0.39289361     0.07600
H1381       H  0.05597353  0.15967044  0.40436670     0.11100
H1382       H  0.03347080  0.15823277  0.33265393     0.11400
H1383       H  0.06541484  0.14325133  0.32122878     0.07700
C1384       C  0.07734167  0.10067305  0.34473265    -0.11400
C1385       C  0.08867108  0.08405269  0.34575925    -0.10700
C1386       C  0.11637750  0.09541077  0.35227367    -0.01600
C1387       C  0.13302642  0.12398739  0.35631719    -0.11800
C1388       C  0.12147059  0.14045312  0.35592937    -0.10200
H1389       H  0.05548825  0.09118920  0.34109679     0.07700
H1390       H  0.07541941  0.06207103  0.34273212     0.11400
H1391       H  0.15434205  0.13315097  0.36174421     0.11100
H1392       H  0.13399574  0.16195638  0.36097444     0.07700
C1393       C  0.45821259  0.60006032  0.13265214    -0.11400
C1394       C  0.45382298  0.60981412  0.15361002     0.05700
C1395       C  0.45643583  0.63577139  0.15401189    -0.10200
C1396       C  0.46127776  0.65072985  0.13352559    -0.11800
C1397       C  0.46382972  0.64010880  0.11227590    -0.01600
C1398       C  0.46329664  0.61511806  0.11219727    -0.10700
C1399       C  0.44177393  0.59121677  0.17384634     0.05700
H1400       H  0.45284139  0.64365519  0.16987994     0.07600
H1401       H  0.46195153  0.67009156  0.13420224     0.11100
H1402       H  0.46544084  0.60648093  0.09614369     0.11400
H1403       H  0.45641998  0.58016568  0.13192169     0.07700
C1404       C  0.41863421  0.56457819  0.17045635    -0.11400
C1405       C  0.40231597  0.54935350  0.18923372    -0.10700
C1406       C  0.40913988  0.56024073  0.21175377    -0.01600
C1407       C  0.43381354  0.58556330  0.21552769    -0.11800
C1408       C  0.44994911  0.60111809  0.19662241    -0.10200
H1409       H  0.41165773  0.55653551  0.15311794     0.07700
H1410       H  0.38320015  0.52995959  0.18599941     0.11400
H1411       H  0.43917800  0.59445534  0.23277944     0.11100
H1412       H  0.46777049  0.62156623  0.19965729     0.07700
C1413       C  0.62118734  0.73578959  0.04693703    -0.11400
C1414       C  0.62440372  0.72397155  0.06713656     0.05700
C1415       C  0.60078346  0.70319369  0.07859962    -0.10200
C1416       C  0.57437749  0.69505614  0.07043439    -0.11800
C1417       C  0.57121560  0.70810725  0.05104774    -0.01600
C1418       C  0.59483345  0.72813516  0.03910157    -0.10700
C1419       C  0.65219621  0.73570324  0.07751084     0.05700
H1420       H  0.60280282  0.69383845  0.09422547     0.07600
H1421       H  0.55647038  0.67963014  0.07999513     0.11100
H1422       H  0.59291180  0.73838716  0.02404779     0.11400
H1423       H  0.63909323  0.75204698  0.03794308     0.07700
C1424       C  0.67481355  0.74050877  0.06386522    -0.11400
C1425       C  0.70171513  0.75570025  0.07278318    -0.10700
C1426       C  0.70635843  0.76683211  0.09524547    -0.01600
C1427       C  0.68367166  0.76096721  0.10922555    -0.11800
C1428       C  0.65678611  0.74522173  0.10053828    -0.10200
H1429       H  0.67172431  0.73341809  0.04603874     0.07700
H1430       H  0.71898067  0.76043800  0.06159216     0.11400
H1431       H  0.68687032  0.76965605  0.12651514     0.11100
H1432       H  0.63972225  0.74206590  0.11129623     0.07700
C1433       C  0.27024755  0.47484559  0.15583170    -0.11400
C1434       C  0.24406379  0.45058142  0.15679317     0.05700
C1435       C  0.23598402  0.43460287  0.17709246    -0.10200
C1436       C  0.25299949  0.44392806  0.19674933    -0.11800
C1437       C  0.27793576  0.46967734  0.19647264    -0.01600
C1438       C  0.28694823  0.48443112  0.17554107    -0.10700
C1439       C  0.22373334  0.44566468  0.13855743     0.05700
H1440       H  0.21581353  0.41585448  0.17815806     0.07600
H1441       H  0.24561439  0.43209819  0.21264008     0.11100
H1442       H  0.30620648  0.50419732  0.17476543     0.11400
H1443       H  0.27677920  0.48764304  0.14042791     0.07700
C1444       C  0.20013996  0.44630439  0.14464905    -0.11400
C1445       C  0.18512271  0.45038381  0.12766274    -0.10700
C1446       C  0.19296685  0.45296978  0.10428993    -0.01600
C1447       C  0.21487617  0.44957615  0.09794204    -0.11800
C1448       C  0.23042908  0.44632885  0.11501565    -0.10200
H1449       H  0.19485318  0.44623331  0.16272650     0.07700
H1450       H  0.16837024  0.45308829  0.13288625     0.11400
H1451       H  0.22145939  0.45187499  0.08000612     0.11100
H1452       H  0.24871455  0.44615551  0.11000105     0.07700
C1453       C  0.34827133  0.60952865  0.01250867    -0.11400
C1454       C  0.33483600  0.58228018  0.02076406     0.05700
C1455       C  0.35081617  0.57242205  0.03039585    -0.10200
C1456       C  0.37938519  0.59018888  0.03338183    -0.11800
C1457       C  0.39219812  0.61795206  0.02681586    -0.01600
C1458       C  0.37664516  0.62726653  0.01572957    -0.10700
C1459       C  0.30421768  0.56575277  0.02238062     0.05700
H1460       H  0.34098378  0.55161177  0.03713528     0.07600
H1461       H  0.39105283  0.58282880  0.04233423     0.11100
H1462       H  0.38624950  0.64871103  0.01066921     0.11400
H1463       H  0.33655793  0.61755269  0.00471713     0.07700
C1464       C  0.29010091  0.57828834  0.03062405    -0.11400
C1465       C  0.26182078  0.56257409  0.03518352    -0.10700
C1466       C  0.24689770  0.53397292  0.03137129    -0.01600
C1467       C  0.26061796  0.52153558  0.02199093    -0.11800
C1468       C  0.28912270  0.53725862  0.01773836    -0.10200
H1469       H  0.30118752  0.60012569  0.03467908     0.07700
H1470       H  0.25174770  0.57269068  0.04231654     0.11400
H1471       H  0.24958201  0.49945860  0.01900094     0.11100
H1472       H  0.29946611  0.52710560  0.01130639     0.07700
C1473       C  0.06851076  0.34377203  0.04869220    -0.11400
C1474       C  0.04983910  0.33560333  0.06725490     0.05700
C1475       C  0.04445293  0.35500279  0.07703784    -0.10200
C1476       C  0.05935243  0.38266022  0.06959648    -0.11800
C1477       C  0.07978490  0.39113605  0.05234209    -0.01600
C1478       C  0.08335285  0.37114818  0.04141185    -0.10700
C1479       C  0.03883138  0.30784491  0.07762705     0.05700
H1480       H  0.03008734  0.34919961  0.09134669     0.07600
H1481       H  0.05621410  0.39766809  0.07834136     0.11100
H1482       H  0.09860956  0.37694452  0.02782644     0.11400
H1483       H  0.07259333  0.32913144  0.04047053     0.07700
C1484       C  0.01067121  0.29015608  0.08287372    -0.11400
C1485       C  0.00092565  0.26340359  0.09131046    -0.10700
C1486       C  0.01930985  0.25416766  0.09502626    -0.01600
C1487       C  0.04752191  0.27234518  0.09046103    -0.11800
C1488       C  0.05710019  0.29871217  0.08183895    -0.10200
H1489       H  0.99616646  0.29672700  0.07983792     0.07700
H1490       H  0.97905561  0.24991064  0.09474383     0.11400
H1491       H  0.06227588  0.26600341  0.09305611     0.11100
H1492       H  0.07898023  0.31205042  0.07834084     0.07700
C1493       C  0.20684803  0.50747395  0.27935888    -0.11400
C1494       C  0.21435841  0.53475590  0.28439741     0.05700
C1495       C  0.24242657  0.55500811  0.28701968    -0.10200
C1496       C  0.26269636  0.54851046  0.28344477    -0.11800
C1497       C  0.25535219  0.52145572  0.27766047    -0.01600
C1498       C  0.22719924  0.50078282  0.27635072    -0.10700
C1499       C  0.19367555  0.54316161  0.28398952     0.05700
H1500       H  0.24874100  0.57623584  0.29056255     0.07600
H1501       H  0.28424321  0.56487764  0.28452612     0.11100
H1502       H  0.22099639  0.47985865  0.27168297     0.11400
H1503       H  0.18529912  0.49157607  0.27708046     0.07700
C1504       C  0.17839430  0.53917789  0.26368780    -0.11400
C1505       C  0.16278959  0.55151632  0.26124616    -0.10700
C1506       C  0.16156515  0.56750221  0.27927875    -0.01600
C1507       C  0.17534804  0.57003798  0.30020684    -0.11800
C1508       C  0.19166640  0.55829807  0.30241362    -0.10200
H1509       H  0.17986668  0.52789412  0.24916371     0.07700
H1510       H  0.15228500  0.54927078  0.24495252     0.11400
H1511       H  0.17483457  0.58242984  0.31426020     0.11100
H1512       H  0.20343831  0.56176022  0.31817401     0.07700
C1513       C  0.10203747  0.50031635  0.15972788    -0.11400
C1514       C  0.07991215  0.50457458  0.15740979     0.05700
C1515       C  0.06795424  0.50149505  0.13540499    -0.10200
C1516       C  0.07912874  0.49614123  0.11589645    -0.11800
C1517       C  0.10276570  0.49428576  0.11800091    -0.01600
C1518       C  0.11350505  0.49547600  0.14020574    -0.10700
C1519       C  0.07348033  0.51743889  0.17686190     0.05700
H1520       H  0.05091098  0.50469131  0.13313897     0.07600
H1521       H  0.07038955  0.49528261  0.09898630     0.11100
H1522       H  0.13155033  0.49387911  0.14236565     0.11400
H1523       H  0.11192213  0.50290528  0.17639964     0.07700
C1524       C  0.07261506  0.50884804  0.19988989    -0.11400
C1525       C  0.07581166  0.52624364  0.21844352    -0.10700
C1526       C  0.08036549  0.55259292  0.21410948    -0.01600
C1527       C  0.07779909  0.55964741  0.19130561    -0.11800
C1528       C  0.07417831  0.54213834  0.17284853    -0.10200
H1529       H  0.07183510  0.48976129  0.20343556     0.07700
H1530       H  0.07784635  0.52039043  0.23585491     0.11400
H1531       H  0.08120382  0.57985920  0.18753608     0.11100
H1532       H  0.07499859  0.54938020  0.15532841     0.07700
C1533       C  0.32111382  0.77599900  0.28900751    -0.11400
C1534       C  0.30926372  0.74722285  0.28855009     0.05700
C1535       C  0.32686184  0.73675278  0.28807555    -0.10200
C1536       C  0.35538283  0.75448520  0.28590392    -0.11800
C1537       C  0.36700661  0.78311459  0.28480726    -0.01600
C1538       C  0.34977209  0.79379069  0.28732272    -0.10700
C1539       C  0.27891852  0.72829500  0.28571002     0.05700
H1540       H  0.31850205  0.71472741  0.28841301     0.07600
H1541       H  0.36828582  0.74576731  0.28433359     0.11100
H1542       H  0.35825504  0.81582765  0.28642617     0.11400
H1543       H  0.30822733  0.78479219  0.28918432     0.07700
C1544       C  0.25985635  0.73366610  0.29627036    -0.11400
C1545       C  0.23150139  0.71684539  0.29155895    -0.10700
C1546       C  0.22174266  0.69434455  0.27622823    -0.01600
C1547       C  0.24080904  0.68868931  0.26622533    -0.11800
C1548       C  0.26892371  0.70546415  0.27078435    -0.10200
H1549       H  0.26685942  0.75096109  0.30802165     0.07700
H1550       H  0.21731811  0.72162438  0.29968935     0.11400
H1551       H  0.23414483  0.67156896  0.25432981     0.11100
H1552       H  0.28291597  0.70101710  0.26185284     0.07700
C1553       C  0.54025538  0.79198782  0.13276787    -0.11400
C1554       C  0.52270905  0.80184384  0.13813526     0.05700
C1555       C  0.50123603  0.79615548  0.12265478    -0.10200
C1556       C  0.49652176  0.78004565  0.10302050    -0.11800
C1557       C  0.51315779  0.76921861  0.09815889    -0.01600
C1558       C  0.53562217  0.77590737  0.11275332    -0.10700
C1559       C  0.52415163  0.81526361  0.16074867     0.05700
H1560       H  0.48689264  0.80275591  0.12637750     0.07600
H1561       H  0.47899576  0.77501847  0.09203841     0.11100
H1562       H  0.54850777  0.76746088  0.10941637     0.11400
H1563       H  0.55697925  0.79603664  0.14435319     0.07700
C1564       C  0.52766430  0.80464396  0.18162397    -0.11400
C1565       C  0.52160976  0.81217017  0.20296170    -0.10700
C1566       C  0.51160174  0.83008135  0.20365592    -0.01600
C1567       C  0.51053447  0.84258850  0.18308548    -0.11800
C1568       C  0.51718705  0.83560576  0.16189305    -0.10200
H1569       H  0.53281706  0.78882950  0.18138516     0.07700
H1570       H  0.52232344  0.80208235  0.21863796     0.11400
H1571       H  0.50302821  0.85659659  0.18326211     0.11100
H1572       H  0.51499573  0.84472325  0.14619656     0.07700
C1573       C  0.38684003  0.65289008  0.28502677    -0.11400
C1574       C  0.41387185  0.66650458  0.29373760     0.05700
C1575       C  0.42482738  0.65105478  0.30204184    -0.10200
C1576       C  0.40962997  0.62224302  0.29973944    -0.11800
C1577       C  0.38353393  0.60884543  0.28894099    -0.01600
C1578       C  0.37177227  0.62431662  0.28266616    -0.10700
C1579       C  0.43165429  0.69635978  0.28980270     0.05700
H1580       H  0.44577658  0.66135301  0.30862785     0.07600
H1581       H  0.41918056  0.61076636  0.30464325     0.11100
H1582       H  0.35160057  0.61450257  0.27453430     0.11400
H1583       H  0.37813261  0.66459447  0.27853594     0.07700
C1584       C  0.43737560  0.70570481  0.26683475    -0.11400
C1585       C  0.44981291  0.73364359  0.26196712    -0.10700
C1586       C  0.45678466  0.75282194  0.27998573    -0.01600
C1587       C  0.45296836  0.74376555  0.30314832    -0.11800
C1588       C  0.44032445  0.71550864  0.30804716    -0.10200
H1589       H  0.43093100  0.69114276  0.25258548     0.07700
H1590       H  0.45273390  0.74013567  0.24398048     0.11400
H1591       H  0.45798629  0.75820668  0.31728875     0.11100
H1592       H  0.43591671  0.70849710  0.32587419     0.07700
C1593       C  0.23706281  0.95601475  0.08037704    -0.11400
C1594       C  0.22861745  0.92866848  0.08602873     0.05700
C1595       C  0.20493160  0.91324206  0.09970693    -0.10200
C1596       C  0.18898030  0.92416424  0.10638868    -0.11800
C1597       C  0.19604460  0.95079645  0.09933831    -0.01600
C1598       C  0.22082869  0.96697938  0.08689778    -0.10700
C1599       C  0.24172210  0.91454778  0.07532398     0.05700
H1600       H  0.19809836  0.89217137  0.10440605     0.07600
H1601       H  0.17031090  0.91108911  0.11622011     0.11100
H1602       H  0.22701415  0.98759694  0.08132503     0.11400
H1603       H  0.25525601  0.96826766  0.06978073     0.07700
C1604       C  0.22531084  0.89096987  0.06178087    -0.11400
C1605       C  0.23603350  0.87573283  0.05282832    -0.10700
C1606       C  0.26351108  0.88336858  0.05737538    -0.01600
C1607       C  0.28036114  0.90760362  0.07035534    -0.11800
C1608       C  0.26957255  0.92319060  0.07914293    -0.10200
H1609       H  0.20386060  0.88403969  0.05841845     0.07700
H1610       H  0.22233381  0.85734383  0.04289351     0.11400
H1611       H  0.30154248  0.91402654  0.07430414     0.11100
H1612       H  0.28260539  0.94133301  0.08958859     0.07700
C1613       C  0.23175625  0.67443066  0.03186514    -0.11400
C1614       C  0.20325154  0.65953141  0.02701924     0.05700
C1615       C  0.18982842  0.67415464  0.02371973    -0.10200
C1616       C  0.20435489  0.70291862  0.02633116    -0.11800
C1617       C  0.23245491  0.71748934  0.03262991    -0.01600
C1618       C  0.24614236  0.70301833  0.03470340    -0.10700
C1619       C  0.18757686  0.62883833  0.02765648     0.05700
H1620       H  0.16794795  0.66326822  0.01977579     0.07600
H1621       H  0.19324086  0.71352688  0.02470695     0.11100
H1622       H  0.26779891  0.71367810  0.03947647     0.11400
H1623       H  0.24269668  0.66383983  0.03479409     0.07700
C1624       C  0.19951920  0.61443370  0.01878062    -0.11400
C1625       C  0.18779137  0.58642044  0.02352841    -0.10700
C1626       C  0.16359915  0.57208478  0.03679055    -0.01600
C1627       C  0.15038274  0.58575247  0.04425738    -0.11800
C1628       C  0.16232711  0.61399520  0.03973911    -0.10200
H1629       H  0.21867110  0.62513979  0.00910140     0.07700
H1630       H  0.19830179  0.57615994  0.01769933     0.11400
H1631       H  0.13191633  0.57507035  0.05481418     0.11100
H1632       H  0.15277139  0.62455470  0.04702802     0.07700
C1633       C  0.16582127  0.73979333  0.12214543    -0.11400
C1634       C  0.17598804  0.74641013  0.14501483     0.05700
C1635       C  0.20291887  0.76895700  0.14872710    -0.10200
C1636       C  0.22025922  0.78267520  0.12993947    -0.11800
C1637       C  0.21081952  0.77452844  0.10712352    -0.01600
C1638       C  0.18309897  0.75392136  0.10329425    -0.10700
C1639       C  0.16113001  0.72706501  0.16441385     0.05700
H1640       H  0.21144227  0.77435574  0.16608980     0.07600
H1641       H  0.24166717  0.79843367  0.13321683     0.11100
H1642       H  0.17554792  0.74712218  0.08581189     0.11400
H1643       H  0.14510662  0.72253464  0.11883581     0.07700
C1644       C  0.16086043  0.73684710  0.18679260    -0.11400
C1645       C  0.15254130  0.71908704  0.20593805    -0.10700
C1646       C  0.14488608  0.69141937  0.20302561    -0.01600
C1647       C  0.14338023  0.68129586  0.18049110    -0.11800
C1648       C  0.15122390  0.69887238  0.16138647    -0.10200
H1649       H  0.16836995  0.75849065  0.18958799     0.07700
H1650       H  0.15390770  0.72743689  0.22313617     0.11400
H1651       H  0.13737180  0.66002170  0.17773369     0.11100
H1652       H  0.15151342  0.69078810  0.14442809     0.07700
C1653       C  0.39008952  0.88112996  0.20104701    -0.11400
C1654       C  0.39636932  0.87802518  0.17803536     0.05700
C1655       C  0.41788928  0.87324314  0.17396661    -0.10200
C1656       C  0.43120832  0.86929068  0.19248259    -0.11800
C1657       C  0.42367655  0.87054999  0.21541198    -0.01600
C1658       C  0.40387028  0.87766446  0.21966515    -0.10700
C1659       C  0.37807300  0.87517709  0.15849016     0.05700
H1660       H  0.42292083  0.87034611  0.15648555     0.07600
H1661       H  0.44631032  0.86359450  0.18888771     0.11100
H1662       H  0.39754047  0.87834696  0.23725610     0.11400
H1663       H  0.37356219  0.88480906  0.20461456     0.07700
C1664       C  0.34938734  0.85691448  0.16050008    -0.11400
C1665       C  0.33255616  0.84856295  0.14080057    -0.10700
C1666       C  0.34402067  0.85858216  0.11875454    -0.01600
C1667       C  0.37229991  0.87873061  0.11701938    -0.11800
C1668       C  0.38922094  0.88679258  0.13670678    -0.10200
H1669       H  0.34025983  0.84741646  0.17700310     0.07700
H1670       H  0.31078181  0.83310725  0.14265391     0.11400
H1671       H  0.38170221  0.88673214  0.10024667     0.11100
H1672       H  0.41127143  0.90098172  0.13472367     0.07700
C1673       C  0.36982364  0.76638365  0.03363848    -0.11400
C1674       C  0.39425610  0.78391479  0.02140992     0.05700
C1675       C  0.40084760  0.81091663  0.01627640    -0.10200
C1676       C  0.38315441  0.82001049  0.02330222    -0.11800
C1677       C  0.35897901  0.80238875  0.03598020    -0.01600
C1678       C  0.35254154  0.77543208  0.04079123    -0.10700
C1679       C  0.41314425  0.77388360  0.01601541     0.05700
H1680       H  0.41963419  0.82491849  0.00694258     0.07600
H1681       H  0.38862689  0.84085903  0.01926736     0.11100
H1682       H  0.33401629  0.76110860  0.05029764     0.11400
H1683       H  0.36437611  0.74571484  0.03838640     0.07700
C1684       C  0.44137605  0.78981698  0.02175754    -0.11400
C1685       C  0.45717596  0.77745196  0.02321562    -0.10700
C1686       C  0.44482405  0.74898967  0.01916036    -0.01600
C1687       C  0.41752399  0.73386465  0.01101123    -0.11800
C1688       C  0.40195829  0.74626247  0.00916776    -0.10200
H1689       H  0.45056373  0.81111423  0.02714973     0.07700
H1690       H  0.47816948  0.78949456  0.02967266     0.11400
H1691       H  0.40762722  0.71194295  0.00758584     0.11100
H1692       H  0.38044190  0.73362796  0.00414020     0.07700
C1693       C  0.49675445  0.82552741  0.43318873    -0.11400
C1694       C  0.48725174  0.84206806  0.42421838     0.05700
C1695       C  0.48048458  0.85666251  0.43978967    -0.10200
C1696       C  0.48336874  0.85495128  0.46370734    -0.11800
C1697       C  0.49305711  0.83857219  0.47267213    -0.01600
C1698       C  0.49959009  0.82376612  0.45712851    -0.10700
C1699       C  0.48463686  0.84425392  0.39873150     0.05700
H1700       H  0.47341070  0.86982457  0.43348041     0.07600
H1701       H  0.47802559  0.86654348  0.47518483     0.11100
H1702       H  0.50702081  0.81089869  0.46344283     0.11400
H1703       H  0.50174169  0.81367309  0.42169785     0.07700
C1704       C  0.50450091  0.84529893  0.38352136    -0.11400
C1705       C  0.50200952  0.84705876  0.35957071    -0.10700
C1706       C  0.47959445  0.84784654  0.35017430    -0.01600
C1707       C  0.45981665  0.84704061  0.36536993    -0.11800
C1708       C  0.46232976  0.84529288  0.38937642    -0.10200
H1709       H  0.52218739  0.84503640  0.39014401     0.07700
H1710       H  0.51766731  0.84768712  0.34840361     0.11400
H1711       H  0.44230290  0.84760965  0.35872129     0.11100
H1712       H  0.44650924  0.84424983  0.40058678     0.07700
C1713       C  0.68425428  0.96147251  0.57229603    -0.11400
C1714       C  0.66046943  0.94053696  0.58331822     0.05700
C1715       C  0.66307480  0.92851212  0.60364190    -0.10200
C1716       C  0.68924767  0.93612096  0.61198937    -0.11800
C1717       C  0.71312808  0.95633556  0.60045234    -0.01600
C1718       C  0.71041512  0.96962377  0.58099169    -0.10700
C1719       C  0.63324898  0.92850211  0.57207586     0.05700
H1720       H  0.64488936  0.91210704  0.61220525     0.07600
H1721       H  0.69083057  0.92557577  0.62700239     0.11100
H1722       H  0.72850389  0.98505429  0.57164576     0.11400
H1723       H  0.68256423  0.97077408  0.55648067     0.07700
C1724       C  0.61130659  0.92835424  0.58335350    -0.11400
C1725       C  0.58459256  0.91325114  0.57409371    -0.10700
C1726       C  0.57941739  0.89747143  0.55381981    -0.01600
C1727       C  0.60167422  0.89866416  0.54206082    -0.11800
C1728       C  0.62843712  0.91432533  0.55098938    -0.10200
H1729       H  0.61469574  0.93907176  0.59972328     0.07700
H1730       H  0.56770668  0.91229260  0.58367513     0.11400
H1731       H  0.59817326  0.88650912  0.52651434     0.11100
H1732       H  0.64513515  0.91403308  0.54219222     0.07700
C1733       C  0.50991823  0.70360740  0.92591506    -0.11400
C1734       C  0.49419695  0.67649586  0.91708410     0.05700
C1735       C  0.47971138  0.65461681  0.93279086    -0.10200
C1736       C  0.48115925  0.65956328  0.95658477    -0.11800
C1737       C  0.49670168  0.68657569  0.96537877    -0.01600
C1738       C  0.51093486  0.70861098  0.94981698    -0.10700
C1739       C  0.49219318  0.67086885  0.89166439     0.05700
H1740       H  0.46673208  0.63357776  0.92674504     0.07600
H1741       H  0.46960200  0.64215551  0.96811467     0.11100
H1742       H  0.52316480  0.72963066  0.95613991     0.11400
H1743       H  0.52168527  0.72097833  0.91442628     0.07700
C1744       C  0.49249736  0.68971374  0.87572805    -0.11400
C1745       C  0.48938110  0.68382526  0.85200115    -0.10700
C1746       C  0.48529309  0.65872681  0.84369553    -0.01600
C1747       C  0.48511938  0.63991229  0.85943445    -0.11800
C1748       C  0.48891959  0.64607856  0.88313187    -0.10200
H1749       H  0.49445894  0.70875002  0.88156068     0.07700
H1750       H  0.48950161  0.69865139  0.84015419     0.11400
H1751       H  0.48249356  0.62064958  0.85336460     0.11100
H1752       H  0.48934530  0.63137796  0.89473588     0.07700
C1753       C  0.50845551  0.70974329  0.65577248    -0.11400
C1754       C  0.53176546  0.73652085  0.65789334     0.05700
C1755       C  0.54580336  0.74487096  0.67921474    -0.10200
C1756       C  0.53552001  0.72744907  0.69852594    -0.11800
C1757       C  0.51067916  0.70174163  0.69688869    -0.01600
C1758       C  0.49781684  0.69261872  0.67516984    -0.10700
C1759       C  0.53724809  0.75698238  0.63960340     0.05700
H1760       H  0.56371955  0.76549495  0.68125342     0.07600
H1761       H  0.54577859  0.73495246  0.71510746     0.11100
H1762       H  0.47873995  0.67279417  0.67345213     0.11400
H1763       H  0.49707300  0.70295842  0.63959856     0.07700
C1764       C  0.53806824  0.75089226  0.61607039    -0.11400
C1765       C  0.53492077  0.76625731  0.59872007    -0.10700
C1766       C  0.53026367  0.78738436  0.60480772    -0.01600
C1767       C  0.53189020  0.79495493  0.62819543    -0.11800
C1768       C  0.53572498  0.78011208  0.64544233    -0.10200
H1769       H  0.53909246  0.73305083  0.61121049     0.07700
H1770       H  0.53331850  0.75985286  0.58078317     0.11400
H1771       H  0.52806849  0.81102073  0.63323296     0.11100
H1772       H  0.53467856  0.78500817  0.66344371     0.07700
C1773       C  0.11364024  0.64220928  0.43867713    -0.11400
C1774       C  0.13303108  0.66100442  0.42270142     0.05700
C1775       C  0.15478840  0.68660448  0.43098691    -0.10200
C1776       C  0.15703764  0.69320945  0.45463343    -0.11800
C1777       C  0.13756665  0.67437916  0.47055646    -0.01600
C1778       C  0.11586786  0.64880072  0.46225925    -0.10700
C1779       C  0.13017167  0.65421825  0.39746115     0.05700
H1780       H  0.17033180  0.70145467  0.41922583     0.07600
H1781       H  0.17407580  0.71300398  0.46043911     0.11100
H1782       H  0.10055383  0.63369492  0.47402551     0.11400
H1783       H  0.09640801  0.62251781  0.43292424     0.07700
C1784       C  0.12073904  0.62720371  0.38960356    -0.11400
C1785       C  0.11775904  0.62103679  0.36579480    -0.10700
C1786       C  0.12427932  0.64179048  0.34934877    -0.01600
C1787       C  0.13366229  0.66872087  0.35729853    -0.11800
C1788       C  0.13647767  0.67480739  0.38095709    -0.10200
H1789       H  0.11596098  0.61087667  0.40184068     0.07700
H1790       H  0.11054088  0.60011862  0.36028203     0.11400
H1791       H  0.13868173  0.68525322  0.34520746     0.11100
H1792       H  0.14318959  0.69565413  0.38630924     0.07700
C1793       C  0.35969751  0.79698553  0.52463729    -0.11400
C1794       C  0.34060556  0.77827139  0.54094497     0.05700
C1795       C  0.35055282  0.77464719  0.56205607    -0.10200
C1796       C  0.37877156  0.78812953  0.56640786    -0.11800
C1797       C  0.39812234  0.80574222  0.54976207    -0.01600
C1798       C  0.38830367  0.81055860  0.52898123    -0.10700
C1799       C  0.31030961  0.76204843  0.53654281     0.05700
H1800       H  0.33639311  0.76106626  0.57528124     0.07600
H1801       H  0.38539437  0.78415897  0.58277331     0.11100
H1802       H  0.40266104  0.82402018  0.51582123     0.11400
H1803       H  0.35255181  0.80034550  0.50828787     0.07700
C1804       C  0.29631225  0.77458669  0.52813436    -0.11400
C1805       C  0.26729577  0.76015778  0.52829468    -0.10700
C1806       C  0.25186048  0.73295549  0.53685901    -0.01600
C1807       C  0.26597432  0.71983304  0.54339787    -0.11800
C1808       C  0.29478097  0.73415375  0.54317677    -0.10200
H1809       H  0.30775190  0.79603073  0.52285087     0.07700
H1810       H  0.25706147  0.77085823  0.52308272     0.11400
H1811       H  0.25480279  0.69881113  0.54978246     0.11100
H1812       H  0.30500160  0.72372051  0.54919136     0.07700
C1813       C  0.05082851  0.70806015  0.57502679    -0.11400
C1814       C  0.05860241  0.73456058  0.56717432     0.05700
C1815       C  0.07973718  0.74745641  0.55060964    -0.10200
C1816       C  0.09389250  0.73497081  0.54298741    -0.11800
C1817       C  0.08742605  0.70920792  0.55177817    -0.01600
C1818       C  0.06520270  0.69550258  0.56745080    -0.10700
C1819       C  0.04665476  0.75010477  0.57726094     0.05700
H1820       H  0.08585035  0.76768959  0.54399480     0.07600
H1821       H  0.11065062  0.74607686  0.53074996     0.11100
H1822       H  0.05973079  0.67568883  0.57461818     0.11400
H1823       H  0.03460030  0.69770400  0.58783470    -0.42700
C1824       C  0.01796578  0.73882584  0.57852274    -0.11400
C1825       C  0.00747564  0.75500434  0.58634362    -0.10700
C1826       C  0.02553660  0.78260478  0.59330699    -0.01600
C1827       C  0.05416477  0.79326730  0.59284404    -0.11800
C1828       C  0.06452823  0.77730059  0.58488350    -0.10200
H1829       H  0.00375688  0.71787744  0.57274366     0.07700
H1830       H  0.98532231  0.74610145  0.58651637     0.11400
H1831       H  0.06878690  0.81430208  0.59816485     0.11100
H1832       H  0.08671544  0.78637393  0.58443847     0.07700
C1833       C  0.32598234  0.85579507  0.93947894    -0.11400
C1834       C  0.30569111  0.83794170  0.92354981     0.05700
C1835       C  0.27953563  0.81764061  0.93205752    -0.10200
C1836       C  0.27385371  0.81528697  0.95591197    -0.11800
C1837       C  0.29416136  0.83327848  0.97182236    -0.01600
C1838       C  0.32029461  0.85353081  0.96325505    -0.10700
C1839       C  0.31170426  0.84090629  0.89816993     0.05700
H1840       H  0.26353126  0.80332513  0.92027778     0.07600
H1841       H  0.25359566  0.79931952  0.96188273     0.11100
H1842       H  0.33653143  0.86767233  0.97495258     0.11400
H1843       H  0.34620086  0.87187269  0.93353271     0.07700
C1844       C  0.29173174  0.83815163  0.88220731    -0.11400
C1845       C  0.29740939  0.84137608  0.85842220    -0.10700
C1846       C  0.32324312  0.84743706  0.84989254    -0.01600
C1847       C  0.34327862  0.85024220  0.86584899    -0.11800
C1848       C  0.33757612  0.84701796  0.88969994    -0.10200
H1849       H  0.27177419  0.83388722  0.88812964     0.07700
H1850       H  0.28143585  0.83906746  0.84670116     0.11400
H1851       H  0.36328700  0.85466463  0.85990854     0.11100
H1852       H  0.35332028  0.84895629  0.90150490     0.07700
C1853       C  0.41799546  0.87624107  0.67344883    -0.11400
C1854       C  0.44612587  0.88751200  0.67843194     0.05700
C1855       C  0.45506515  0.89327249  0.70162257    -0.10200
C1856       C  0.43590923  0.88662147  0.71958714    -0.11800
C1857       C  0.40753629  0.87347885  0.71455762    -0.01600
C1858       C  0.39890623  0.86909697  0.69131368    -0.10700
C1859       C  0.46443942  0.88856025  0.65965376     0.05700
H1860       H  0.47663889  0.90178023  0.70586994     0.07600
H1861       H  0.44301019  0.88999214  0.73740309     0.11100
H1862       H  0.37714815  0.85898762  0.68697970     0.11400
H1863       H  0.41044908  0.87111055  0.65578818     0.07700
C1864       C  0.47805267  0.87405674  0.66224478    -0.11400
C1865       C  0.48689896  0.86620407  0.64269640    -0.10700
C1866       C  0.48255478  0.87305965  0.62033863    -0.01600
C1867       C  0.47245669  0.89081164  0.61806912    -0.11800
C1868       C  0.46328372  0.89833833  0.63758235    -0.10200
H1869       H  0.47922476  0.86629029  0.67907705     0.07700
H1870       H  0.49506952  0.85291662  0.64497345     0.11400
H1871       H  0.46910633  0.89667089  0.60108628     0.11100
H1872       H  0.45310517  0.90979023  0.63521542     0.07700
C1873       C  0.38604446  0.75236147  0.78705778    -0.11400
C1874       C  0.41470338  0.76652456  0.79100349     0.05700
C1875       C  0.42888683  0.79515242  0.79521065    -0.10200
C1876       C  0.41481714  0.80939881  0.79441443    -0.11800
C1877       C  0.38646806  0.79528309  0.78899296    -0.01600
C1878       C  0.37216833  0.76653159  0.78601215    -0.10700
C1879       C  0.42941399  0.75130206  0.78886781     0.05700
H1880       H  0.45093603  0.80658470  0.79846038     0.07600
H1881       H  0.42641289  0.83161194  0.79655260     0.11100
H1882       H  0.35034691  0.75509481  0.78175548     0.11400
H1883       H  0.37449869  0.73041742  0.78346272     0.07700
C1884       C  0.41712226  0.72432100  0.79759055    -0.11400
C1885       C  0.42766037  0.70775029  0.79185423    -0.10700
C1886       C  0.45109816  0.71789879  0.77768059    -0.01600
C1887       C  0.46464770  0.74541616  0.77016407    -0.11800
C1888       C  0.45382456  0.76200584  0.77566077    -0.10200
H1889       H  0.39857805  0.71559370  0.80807533     0.07700
H1890       H  0.41691284  0.68656971  0.79784946     0.11400
H1891       H  0.48253770  0.75350184  0.75893539     0.11100
H1892       H  0.46358167  0.78258662  0.76844767     0.07700
C1893       C  0.23367334  0.81223359  0.68300227    -0.11400
C1894       C  0.24337140  0.80822396  0.66183474     0.05700
C1895       C  0.27024748  0.81307340  0.66071637    -0.10200
C1896       C  0.28632465  0.81970192  0.68075666    -0.11800
C1897       C  0.27599053  0.82201084  0.70225177    -0.01600
C1898       C  0.24999262  0.81938590  0.70302417    -0.10700
C1899       C  0.22428607  0.79434611  0.64212868     0.05700
H1900       H  0.27806003  0.80976006  0.64467363     0.07600
H1901       H  0.30638431  0.82182355  0.67961692     0.11100
H1902       H  0.24152452  0.82104328  0.71935648     0.11400
H1903       H  0.21296151  0.80849931  0.68424973     0.07700
C1904       C  0.19987181  0.76879668  0.64589596    -0.11400
C1905       C  0.18538212  0.75166682  0.62719085    -0.10700
C1906       C  0.19468930  0.76006363  0.60441170    -0.01600
C1907       C  0.21748620  0.78667528  0.60044365    -0.11800
C1908       C  0.23241040  0.80364751  0.61924121    -0.10200
H1909       H  0.19340638  0.76098997  0.66334899     0.07700
H1910       H  0.16806944  0.73101224  0.63056902     0.11400
H1911       H  0.22525377  0.79326257  0.58299520     0.11100
H1912       H  0.25125383  0.82323906  0.61597016     0.07700
C1913       C  0.11818000  0.50178903  0.88765883    -0.11400
C1914       C  0.12624134  0.48412303  0.89676265     0.05700
C1915       C  0.13202975  0.46869861  0.88130717    -0.10200
C1916       C  0.12973408  0.47077193  0.85736760    -0.11800
C1917       C  0.12167131  0.48841067  0.84818973    -0.01600
C1918       C  0.11598383  0.50396603  0.86363794    -0.10700
C1919       C  0.12828773  0.48144476  0.92225825     0.05700
H1920       H  0.13794766  0.45465129  0.88773512     0.07600
H1921       H  0.13441290  0.45855422  0.84603549     0.11100
H1922       H  0.10990283  0.51787515  0.85718237     0.11400
H1923       H  0.11390005  0.51420508  0.89911347     0.07700
C1924       C  0.14995035  0.47938451  0.93173158    -0.11400
C1925       C  0.15158140  0.47640003  0.95566897    -0.10700
C1926       C  0.13163065  0.47549606  0.97071810    -0.01600
C1927       C  0.10998866  0.47756886  0.96123207    -0.11800
C1928       C  0.10832372  0.48047044  0.93730040    -0.10200
H1929       H  0.16587088  0.48043146  0.92064871     0.07700
H1930       H  0.16868208  0.47514958  0.96240409     0.11400
H1931       H  0.09422914  0.47687209  0.97230365     0.11100
H1932       H  0.09115763  0.48157108  0.93052899     0.07700
C1933       C  0.08537788  0.57495306  0.69703356    -0.11400
C1934       C  0.09195592  0.57198356  0.67410506     0.05700
C1935       C  0.10180787  0.55436391  0.66969208    -0.10200
C1936       C  0.10665137  0.54137131  0.68790068    -0.11800
C1937       C  0.10145280  0.54540056  0.71093135    -0.01600
C1938       C  0.08981827  0.56149141  0.71533202    -0.10700
C1939       C  0.09235437  0.58969873  0.65509368     0.05700
H1940       H  0.10750870  0.55204641  0.65228163     0.07600
H1941       H  0.11575029  0.52916387  0.68406184     0.11100
H1942       H  0.08598008  0.56517902  0.73297793     0.11400
H1943       H  0.07783671  0.58851039  0.70085797     0.07700
C1944       C  0.08309866  0.57867008  0.63278272    -0.11400
C1945       C  0.08984994  0.59609995  0.61362946    -0.10700
C1946       C  0.10633587  0.62486630  0.61644496    -0.01600
C1947       C  0.11352182  0.63589052  0.63897406    -0.11800
C1948       C  0.10640074  0.61844500  0.65817005    -0.10200
H1949       H  0.07211222  0.55655947  0.62999350     0.07700
H1950       H  0.08415284  0.58702583  0.59646235     0.11400
H1951       H  0.12616499  0.65800767  0.64161308     0.11100
H1952       H  0.11393345  0.62749780  0.67514445     0.07700
C1953       C  0.22197513  0.64910440  0.78368210    -0.11400
C1954       C  0.20905753  0.66186183  0.79390682     0.05700
C1955       C  0.18137962  0.64547922  0.80103241    -0.10200
C1956       C  0.16675986  0.61681366  0.79750824    -0.11800
C1957       C  0.17953032  0.60427464  0.78645740    -0.01600
C1958       C  0.20743756  0.62073890  0.77999827    -0.10700
C1959       C  0.22446669  0.69236748  0.79529139     0.05700
H1960       H  0.17100618  0.65489796  0.80894176     0.07600
H1961       H  0.14522261  0.60467281  0.80253998     0.11100
H1962       H  0.21792921  0.61182225  0.77141837     0.11400
H1963       H  0.24313813  0.66126574  0.77763902     0.07700
C1964       C  0.25226542  0.70668097  0.80226428    -0.11400
C1965       C  0.26927271  0.73478739  0.79783439    -0.10700
C1966       C  0.25868381  0.74920907  0.78676116    -0.01600
C1967       C  0.23032769  0.73569234  0.78185314    -0.11800
C1968       C  0.21324484  0.70729077  0.78604605    -0.10200
H1969       H  0.26128947  0.69570926  0.80972041     0.07700
H1970       H  0.29110540  0.74499475  0.80185871     0.11400
H1971       H  0.22189991  0.74654867  0.77314889     0.11100
H1972       H  0.19190695  0.69666726  0.78039914     0.07700
C1973       C  0.32344814  0.59018093  0.78029596    -0.11400
C1974       C  0.30958499  0.56477169  0.79204664     0.05700
C1975       C  0.32501393  0.55365066  0.80030558    -0.10200
C1976       C  0.35363979  0.56745914  0.79641576    -0.11800
C1977       C  0.36709678  0.59233320  0.78386472    -0.01600
C1978       C  0.35175759  0.60370947  0.77623981    -0.10700
C1979       C  0.27894024  0.54956718  0.79385733     0.05700
H1980       H  0.31489135  0.53413415  0.80944936     0.07600
H1981       H  0.36499767  0.55816432  0.80232798     0.11100
H1982       H  0.36158294  0.62287097  0.76655492     0.11400
H1983       H  0.31220975  0.59911799  0.77328955     0.07700
C1984       C  0.26574387  0.56432077  0.79757067    -0.11400
C1985       C  0.23749316  0.55189567  0.79362925    -0.10700
C1986       C  0.22166461  0.52428763  0.78640082    -0.01600
C1987       C  0.23406325  0.50855276  0.78499410    -0.11800
C1988       C  0.26264380  0.52117958  0.78862480    -0.10200
H1989       H  0.27757279  0.58599598  0.80217935     0.07700
H1990       H  0.22821088  0.56432068  0.79498202     0.11400
H1991       H  0.22217537  0.48725862  0.77929536     0.11100
H1992       H  0.27223377  0.50928585  0.78559987     0.07700
C1993       C  0.32478963  0.48996889  0.43467429    -0.11400
C1994       C  0.30471598  0.48552088  0.41812068     0.05700
C1995       C  0.27877141  0.47990382  0.42591738    -0.10200
C1996       C  0.27305739  0.47876316  0.44970089    -0.11800
C1997       C  0.29317029  0.48322689  0.46625146    -0.01600
C1998       C  0.31911388  0.48885830  0.45839001    -0.10700
C1999       C  0.31091093  0.48692426  0.39285207     0.05700
H2000       H  0.26297826  0.47676420  0.41360766     0.07600
H2001       H  0.25293712  0.47450471  0.45511064     0.11100
H2002       H  0.33511225  0.49227178  0.47058686     0.11400
H2003       H  0.34483110  0.49396941  0.42929602     0.07700
C2004       C  0.33688469  0.50725770  0.38411171    -0.11400
C2005       C  0.34242156  0.50907505  0.36028879    -0.10700
C2006       C  0.32208614  0.49064489  0.34460694    -0.01600
C2007       C  0.29631474  0.46996806  0.35340986    -0.11800
C2008       C  0.29081724  0.46811645  0.37722384    -0.10200
H2009       H  0.35273616  0.52225223  0.39563691     0.07700
H2010       H  0.36241504  0.52537238  0.35411119     0.11400
H2011       H  0.28022362  0.45531810  0.34185908     0.11100
H2012       H  0.27079705  0.45190460  0.38341926     0.07700
C2013       C  0.17842792  0.57870960  0.55430727    -0.11400
C2014       C  0.17939321  0.57087820  0.53143570     0.05700
C2015       C  0.16776664  0.57836276  0.51357406    -0.10200
C2016       C  0.15719428  0.59533700  0.51845580    -0.11800
C2017       C  0.15831327  0.60491771  0.54121585    -0.01600
C2018       C  0.16801698  0.59548382  0.55914485    -0.10700
C2019       C  0.19569885  0.55800258  0.52672435     0.05700
H2020       H  0.16836160  0.57247021  0.49580136     0.07600
H2021       H  0.14979858  0.60231202  0.50433529     0.11100
H2022       H  0.16871179  0.60210976  0.57690653     0.11400
H2023       H  0.18702966  0.57289123  0.56835051     0.07700
C2024       C  0.22355911  0.57235716  0.53340457    -0.11400
C2025       C  0.23816502  0.55897868  0.53432648    -0.10700
C2026       C  0.22521587  0.53085633  0.52863175    -0.01600
C2027       C  0.19802446  0.51703914  0.51992990    -0.11800
C2028       C  0.18326703  0.53057492  0.51903721    -0.10200
H2029       H  0.23354799  0.59358631  0.53925898     0.07700
H2030       H  0.25918677  0.57026398  0.54082420     0.11400
H2031       H  0.18755261  0.49533037  0.51551225     0.11100
H2032       H  0.16172859  0.51916219  0.51391342     0.07700
C2033       C  0.34597642  0.51671318  0.65592331    -0.11400
C2034       C  0.37285456  0.52172677  0.65379313     0.05700
C2035       C  0.38181743  0.51818658  0.63207271    -0.10200
C2036       C  0.36473225  0.51123706  0.61258505    -0.11800
C2037       C  0.33854313  0.50809056  0.61444288    -0.01600
C2038       C  0.32903147  0.51005971  0.63645533    -0.10700
C2039       C  0.39255823  0.53505550  0.67322023     0.05700
H2040       H  0.40247811  0.52198726  0.63001268     0.07600
H2041       H  0.37264009  0.50981567  0.59587291     0.11100
H2042       H  0.30892964  0.50764309  0.63850328     0.11400
H2043       H  0.33870392  0.51975582  0.67237975     0.07700
C2044       C  0.41768421  0.55983926  0.66915774    -0.11400
C2045       C  0.43267726  0.57707137  0.68763817    -0.10700
C2046       C  0.42298312  0.56963293  0.71047086    -0.01600
C2047       C  0.39972989  0.54339680  0.71478381    -0.11800
C2048       C  0.38443585  0.52627650  0.69621485    -0.10200
H2049       H  0.42435416  0.56719368  0.65163260     0.07700
H2050       H  0.45063265  0.59722998  0.68395776     0.11400
H2051       H  0.39182482  0.53732768  0.73226256     0.11100
H2052       H  0.36521589  0.50713305  0.69973831     0.07700
C2053       C  0.16098700  0.43835544  0.61727946    -0.11400
C2054       C  0.17110974  0.43856768  0.63965004     0.05700
C2055       C  0.19625249  0.43955021  0.64172272    -0.10200
C2056       C  0.21239643  0.44357638  0.62214359    -0.11800
C2057       C  0.20359340  0.44633978  0.60012746    -0.01600
C2058       C  0.17712711  0.44217144  0.59760928    -0.10700
C2059       C  0.15879466  0.44331754  0.66056809     0.05700
H2060       H  0.20481149  0.44004325  0.65862304     0.07600
H2061       H  0.23293063  0.44706201  0.62444189     0.11100
H2062       H  0.17015499  0.44466714  0.58082062     0.11400
H2063       H  0.14152765  0.43732775  0.61513655     0.07700
C2064       C  0.15120725  0.46316310  0.65969870    -0.11400
C2065       C  0.14570911  0.47274065  0.68003664    -0.10700
C2066       C  0.14741539  0.46256004  0.70173948    -0.01600
C2067       C  0.15284178  0.44116946  0.70261225    -0.11800
C2068       C  0.15867856  0.43175184  0.68218845    -0.10200
H2069       H  0.15145583  0.47281459  0.64344851     0.07700
H2070       H  0.14130566  0.48905853  0.67885379     0.11400
H2071       H  0.15425585  0.43295065  0.71914001     0.11100
H2072       H  0.16430678  0.41632521  0.68339009     0.07700
C2073       C  0.39466656  0.69030208  0.52785511    -0.11400
C2074       C  0.40438827  0.67210280  0.52963144     0.05700
C2075       C  0.43273010  0.68322848  0.53380330    -0.10200
C2076       C  0.45051043  0.71154370  0.53733711    -0.11800
C2077       C  0.44013274  0.72908001  0.53738216    -0.01600
C2078       C  0.41226309  0.71843318  0.53220989    -0.10700
C2079       C  0.38464456  0.64169133  0.52993944     0.05700
H2080       H  0.44100908  0.67000599  0.53567327     0.07600
H2081       H  0.47200098  0.71950137  0.54148692     0.11100
H2082       H  0.40403197  0.73183694  0.53193694     0.11400
H2083       H  0.37324302  0.68275473  0.52388224     0.07700
C2084       C  0.35822232  0.63098794  0.53954738    -0.11400
C2085       C  0.34072068  0.60279053  0.54281182    -0.10700
C2086       C  0.34919102  0.58434120  0.53698665    -0.01600
C2087       C  0.37498657  0.59462314  0.52633488    -0.11800
C2088       C  0.39255289  0.62308404  0.52277649    -0.10200
H2089       H  0.35136007  0.64437458  0.54573599     0.07700
H2090       H  0.32075130  0.59555117  0.55071356     0.11400
H2091       H  0.38192431  0.58084442  0.52147459     0.11100
H2092       H  0.41251953  0.63049984  0.51486656     0.07700
C2093       C  0.23669531  0.35385219  0.54627788    -0.11400
C2094       C  0.24824516  0.35038972  0.56655038     0.05700
C2095       C  0.26968606  0.37376131  0.57780130    -0.10200
C2096       C  0.27893034  0.40023939  0.56925182    -0.11800
C2097       C  0.26632444  0.40376403  0.54968724    -0.01600
C2098       C  0.24541803  0.38030954  0.53808375    -0.10700
C2099       C  0.23596545  0.32264341  0.57700891     0.05700
H2100       H  0.27877553  0.37151633  0.59352087     0.07600
H2101       H  0.29482469  0.41798718  0.57869130     0.11100
H2102       H  0.23528711  0.38247804  0.52303417     0.11400
H2103       H  0.21993803  0.33611547  0.53747186     0.07700
C2104       C  0.22493067  0.31787739  0.59951759    -0.11400
C2105       C  0.20951404  0.29101898  0.60827221    -0.10700
C2106       C  0.20549331  0.26853338  0.59489955    -0.01600
C2107       C  0.21795720  0.27349544  0.57292088    -0.11800
C2108       C  0.23275151  0.30030766  0.56390852    -0.10200
H2109       H  0.22693385  0.33478300  0.60982128     0.07700
H2110       H  0.19992654  0.28769065  0.62517170     0.11400
H2111       H  0.21476259  0.25645366  0.56211477     0.11100
H2112       H  0.24100991  0.30355017  0.54647414     0.07700
C2113       C  0.90684988  0.63421077  0.90756597    -0.11400
C2114       C  0.89837846  0.65298479  0.91182886     0.05700
C2115       C  0.87625849  0.64559605  0.92692022    -0.10200
C2116       C  0.86157038  0.61926888  0.93642748    -0.11800
C2117       C  0.86842374  0.59949645  0.93079659    -0.01600
C2118       C  0.89185082  0.60750616  0.91694581    -0.10700
C2119       C  0.91080775  0.67957693  0.89952420     0.05700
H2120       H  0.86971714  0.65999210  0.93070950     0.07600
H2121       H  0.84391192  0.61400491  0.94727888     0.11100
H2122       H  0.89761390  0.59273780  0.91228664     0.11400
H2123       H  0.92400955  0.63969193  0.89602290     0.07700
C2124       C  0.93876025  0.69999916  0.90239917    -0.11400
C2125       C  0.94894113  0.72666828  0.89381718    -0.10700
C2126       C  0.93126844  0.73312543  0.88212238    -0.01600
C2127       C  0.90378056  0.71194637  0.87788998    -0.11800
C2128       C  0.89364578  0.68551687  0.88660453    -0.10200
H2129       H  0.95227202  0.69573677  0.91235975     0.07700
H2130       H  0.97023590  0.74248607  0.89729945     0.11400
H2131       H  0.88963910  0.71604840  0.86877388     0.11100
H2132       H  0.87204898  0.66989027  0.88403512     0.07700
C2133       C  0.86691974  0.44220946  0.81061137    -0.11400
C2134       C  0.87274375  0.46925844  0.80785764     0.05700
C2135       C  0.87711347  0.48042400  0.78538532    -0.10200
C2136       C  0.87273007  0.46383292  0.76591325    -0.11800
C2137       C  0.86343158  0.43581376  0.76879071    -0.01600
C2138       C  0.86201886  0.42553539  0.79121064    -0.10700
C2139       C  0.86778101  0.48278816  0.82761694     0.05700
H2140       H  0.88167001  0.50127166  0.78288380     0.07600
H2141       H  0.87374413  0.47207754  0.74876938     0.11100
H2142       H  0.85483030  0.40391582  0.79376048     0.11400
H2143       H  0.86323936  0.43303313  0.82769891     0.07700
C2144       C  0.84801970  0.49032927  0.82511960    -0.11400
C2145       C  0.83764678  0.49659510  0.84454689    -0.10700
C2146       C  0.84715009  0.49591385  0.86687433    -0.01600
C2147       C  0.86854640  0.49056030  0.86925163    -0.11800
C2148       C  0.87854230  0.48368880  0.84978140    -0.10200
H2149       H  0.83902911  0.48934387  0.80829834     0.07700
H2150       H  0.82123077  0.50071708  0.84220246     0.11400
H2151       H  0.87614607  0.48976080  0.88628793     0.11100
H2152       H  0.89364408  0.47775596  0.85213530     0.07700
C2153       C  0.95847105  0.41044316  0.71515980    -0.11400
C2154       C  0.96207167  0.39327217  0.73020888     0.05700
C2155       C  0.93928548  0.36734064  0.73605798    -0.10200
C2156       C  0.91287301  0.35922985  0.72779205    -0.11800
C2157       C  0.90890625  0.37718732  0.71386440    -0.01600
C2158       C  0.93216347  0.40250225  0.70705044    -0.10700
C2159       C  0.98868343  0.40454268  0.74234190     0.05700
H2160       H  0.94174193  0.35398994  0.74786981     0.07600
H2161       H  0.89540833  0.33962793  0.73337741     0.11100
H2162       H  0.92991213  0.41675504  0.69623698     0.11400
H2163       H  0.97585877  0.43064221  0.71066477     0.07700
C2164       C  0.01050955  0.40317828  0.73247285    -0.11400
C2165       C  0.03701202  0.41814557  0.74232591    -0.10700
C2166       C  0.04199407  0.43504504  0.76184478    -0.01600
C2167       C  0.01969739  0.43516754  0.77225752    -0.11800
C2168       C  0.99327045  0.41995003  0.76264177    -0.10200
H2169       H  0.00731107  0.39159934  0.71662900     0.07700
H2170       H  0.05392429  0.41800200  0.73378640     0.11400
H2171       H  0.02296777  0.44802696  0.78726713     0.11100
H2172       H  0.97664284  0.42134983  0.77034116     0.07700
C2173       C  0.71598290  0.31601088  0.94222512    -0.11400
C2174       C  0.74182833  0.33056970  0.95334280     0.05700
C2175       C  0.75313008  0.31562003  0.96236344    -0.10200
C2176       C  0.73899434  0.28675777  0.95992063    -0.11800
C2177       C  0.71352729  0.27247815  0.94813672    -0.01600
C2178       C  0.70206824  0.28745879  0.93968562    -0.10700
C2179       C  0.75692518  0.36127837  0.95425318     0.05700
H2180       H  0.77296895  0.32626078  0.97107034     0.07600
H2181       H  0.74846790  0.27579047  0.96639717     0.11100
H2182       H  0.68254203  0.27715280  0.93046282     0.11400
H2183       H  0.70686532  0.32681855  0.93465574     0.07700
C2184       C  0.78531934  0.37763971  0.94890147    -0.11400
C2185       C  0.79791297  0.40622612  0.94540032    -0.10700
C2186       C  0.78217663  0.41862260  0.94709111    -0.01600
C2187       C  0.75448402  0.40263658  0.95410633    -0.11800
C2188       C  0.74207484  0.37439818  0.95785170    -0.10200
H2189       H  0.79729410  0.36812424  0.94594152     0.07700
H2190       H  0.81927393  0.41820000  0.93983279     0.11400
H2191       H  0.74208230  0.41188750  0.95572702     0.11100
H2192       H  0.72039914  0.36257250  0.96254205     0.07700
C2193       C  0.77853328  0.25478544  0.85985781    -0.11400
C2194       C  0.76909699  0.24763431  0.83685292     0.05700
C2195       C  0.74313528  0.22378152  0.83277418    -0.10200
C2196       C  0.72586258  0.20899188  0.85130333    -0.11800
C2197       C  0.73436989  0.21748342  0.87427638    -0.01600
C2198       C  0.76136496  0.23964588  0.87846123    -0.10700
C2199       C  0.78369849  0.26709105  0.81746982     0.05700
H2200       H  0.73520561  0.21789328  0.81527317     0.07600
H2201       H  0.70512357  0.19194162  0.84764861     0.11100
H2202       H  0.76830700  0.24670156  0.89601963     0.11400
H2203       H  0.79853695  0.27301609  0.86344226     0.07700
C2204       C  0.79190626  0.29493609  0.81996198    -0.11400
C2205       C  0.79999338  0.31225319  0.80064340    -0.10700
C2206       C  0.80036024  0.30219615  0.77843164    -0.01600
C2207       C  0.79415531  0.27491160  0.77618787    -0.11800
C2208       C  0.78568408  0.25744839  0.79551451    -0.10200
H2209       H  0.79025572  0.30286312  0.83659191     0.07700
H2210       H  0.80480608  0.33322019  0.80295442     0.11400
H2211       H  0.79421913  0.26656667  0.75929652     0.11100
H2212       H  0.77951742  0.23607609  0.79314591     0.07700
C2213       C  0.68093810  0.06581735  0.91003362    -0.11400
C2214       C  0.70916142  0.07531179  0.91225841     0.05700
C2215       C  0.72660524  0.10057369  0.92342532    -0.10200
C2216       C  0.71640889  0.11672533  0.93134117    -0.11800
C2217       C  0.68846623  0.10813479  0.92814101    -0.01600
C2218       C  0.67064626  0.08214015  0.91789171    -0.10700
C2219       C  0.72155314  0.06075688  0.90126472     0.05700
H2220       H  0.74842259  0.10819228  0.92540911     0.07600
H2221       H  0.73072119  0.13644217  0.93932710     0.11100
H2222       H  0.64905004  0.07493995  0.91509988     0.11400
H2223       H  0.66717891  0.04642468  0.90134172     0.07700
C2224       C  0.71619773  0.03516698  0.90947598    -0.11400
C2225       C  0.73208580  0.02436643  0.90156833    -0.10700
C2226       C  0.75343094  0.03903189  0.88529856    -0.01600
C2227       C  0.75713876  0.06360473  0.87597981    -0.11800
C2228       C  0.74151928  0.07436556  0.88395351    -0.10200
H2229       H  0.70089477  0.02439602  0.92291004     0.07700
H2230       H  0.72873918  0.00544780  0.90913757     0.11400
H2231       H  0.77311915  0.07534356  0.86325518     0.11100
H2232       H  0.74583887  0.09403820  0.87728997     0.07700
C2233       C  0.68363007  0.28842455  0.69136450    -0.11400
C2234       C  0.67116197  0.25962874  0.69040408     0.05700
C2235       C  0.68807935  0.24836124  0.69063337    -0.10200
C2236       C  0.71670314  0.26550309  0.69391444    -0.11800
C2237       C  0.72851914  0.29395640  0.69727047    -0.01600
C2238       C  0.71193231  0.30535440  0.69502555    -0.10700
C2239       C  0.64072426  0.24174747  0.69275746     0.05700
H2240       H  0.67901739  0.22623034  0.68995870     0.07600
H2241       H  0.72920534  0.25635348  0.69551922     0.11100
H2242       H  0.72073489  0.32735687  0.69709311     0.11400
H2243       H  0.67123827  0.29776708  0.69059745     0.07700
C2244       C  0.62712404  0.24926284  0.70871193    -0.11400
C2245       C  0.59900340  0.23207759  0.71281945    -0.10700
C2246       C  0.58355546  0.20665923  0.70123723    -0.01600
C2247       C  0.59686795  0.19926726  0.68477334    -0.11800
C2248       C  0.62531310  0.21665580  0.68063284    -0.10200
H2249       H  0.63843877  0.26811168  0.71876028     0.07700
H2250       H  0.58953510  0.23851722  0.72560974     0.11400
H2251       H  0.58550820  0.17978260  0.67559302     0.11100
H2252       H  0.63529675  0.21040531  0.66820339     0.07700
C2253       C  0.55978179  0.09465095  0.84541771    -0.11400
C2254       C  0.56997597  0.10870585  0.82424650     0.05700
C2255       C  0.59776216  0.13025314  0.82288632    -0.10200
C2256       C  0.61428242  0.13925601  0.84271683    -0.11800
C2257       C  0.60353054  0.12656056  0.86420916    -0.01600
C2258       C  0.57658475  0.10333735  0.86524714    -0.10700
C2259       C  0.55102411  0.10508701  0.80502584     0.05700
H2260       H  0.60606223  0.14170787  0.80691667     0.07600
H2261       H  0.63503827  0.15718654  0.84152996     0.11100
H2262       H  0.56782996  0.09336092  0.88169733     0.11400
H2263       H  0.53839039  0.07803586  0.84689558     0.07700
C2264       C  0.55863254  0.10526108  0.78175055    -0.11400
C2265       C  0.54496351  0.10996412  0.76380154    -0.10700
C2266       C  0.52390553  0.11506098  0.76900400    -0.01600
C2267       C  0.51474106  0.11242942  0.79202528    -0.11800
C2268       C  0.52799265  0.10721632  0.80985131    -0.10200
H2269       H  0.57635727  0.10368872  0.77762372     0.07700
H2270       H  0.55253262  0.11216656  0.74619606     0.11400
H2271       H  0.49856586  0.11636113  0.79641867     0.11100
H2272       H  0.52187772  0.10749890  0.82760971     0.07700
C2273       C  0.37846216  0.02758440  0.74021407    -0.11400
C2274       C  0.38493657  0.00799178  0.73322553     0.05700
C2275       C  0.40543874  0.01515114  0.71642832    -0.10200
C2276       C  0.42070761  0.04202328  0.70795604    -0.11800
C2277       C  0.41593653  0.06242089  0.71625187    -0.01600
C2278       C  0.39390230  0.05470446  0.73176556    -0.10700
C2279       C  0.37351777  0.98144001  0.74545835     0.05700
H2280       H  0.41059150  0.00021831  0.71075527     0.07600
H2281       H  0.43729017  0.04716822  0.69582464     0.11100
H2282       H  0.38980105  0.06997935  0.73853142     0.11400
H2283       H  0.36275838  0.02239252  0.75326392     0.07700
C2284       C  0.39162701  0.97642328  0.75788689    -0.11400
C2285       C  0.38236517  0.95054586  0.76746349    -0.10700
C2286       C  0.35475776  0.92891270  0.76464149    -0.01600
C2287       C  0.33623275  0.93435425  0.75309800    -0.11800
C2288       C  0.34556581  0.96052528  0.74362494    -0.10200
H2289       H  0.41323906  0.99243515  0.75961657     0.07700
H2290       H  0.39718369  0.94724510  0.77633996     0.11400
H2291       H  0.31485117  0.91813586  0.75056423     0.11100
H2292       H  0.33132434  0.96408375  0.73404426     0.07700
C2293       C  0.57316823  0.34555813  0.69966904    -0.11400
C2294       C  0.54474871  0.33042792  0.69477664     0.05700
C2295       C  0.53168327  0.34455691  0.68816911    -0.10200
C2296       C  0.54635195  0.37351845  0.68865893    -0.11800
C2297       C  0.57418438  0.38857156  0.69581560    -0.01600
C2298       C  0.58774569  0.37430887  0.70018150    -0.10700
C2299       C  0.52855333  0.30063067  0.70030551     0.05700
H2300       H  0.50975630  0.33325190  0.68439621     0.07600
H2301       H  0.53534584  0.38396548  0.68527435     0.11100
H2302       H  0.60923237  0.38531600  0.70547170     0.11400
H2303       H  0.58370859  0.33502696  0.70456092     0.07700
C2304       C  0.51161035  0.28050129  0.68387068    -0.11400
C2305       C  0.49863686  0.25229955  0.68936450    -0.10700
C2306       C  0.50242914  0.24408602  0.71138714    -0.01600
C2307       C  0.51812440  0.26444592  0.72805823    -0.11800
C2308       C  0.53101400  0.29229844  0.72258337    -0.10200
H2309       H  0.50934366  0.28656988  0.66660535     0.07700
H2310       H  0.48675339  0.23703279  0.67616243     0.11400
H2311       H  0.52114533  0.25883821  0.74527722     0.11100
H2312       H  0.54348591  0.30747413  0.73568128     0.07700
C2313       C  0.72807715  0.56299640  0.79978568    -0.11400
C2314       C  0.71726964  0.55037972  0.82134756     0.05700
C2315       C  0.68881904  0.53095540  0.82324996    -0.10200
C2316       C  0.67207218  0.52215979  0.80351704    -0.11800
C2317       C  0.68336983  0.53306736  0.78164832    -0.01600
C2318       C  0.71114075  0.55461807  0.78008717    -0.10700
C2319       C  0.73584309  0.55279073  0.84044330     0.05700
H2320       H  0.68001747  0.52073379  0.83960582     0.07600
H2321       H  0.65064796  0.50561952  0.80512160     0.11100
H2322       H  0.72030160  0.56326944  0.76337338     0.11400
H2323       H  0.74996284  0.57801115  0.79792447     0.07700
C2324       C  0.75664970  0.54714501  0.83577311    -0.11400
C2325       C  0.76937272  0.54167114  0.85387293    -0.10700
C2326       C  0.76193759  0.54227456  0.87700557    -0.01600
C2327       C  0.74312490  0.55057940  0.88183300    -0.11800
C2328       C  0.72989139  0.55547759  0.86363746    -0.10200
H2329       H  0.76139216  0.54460673  0.81807332     0.07700
H2330       H  0.78385853  0.53534670  0.84973743     0.11400
H2331       H  0.73694309  0.55099893  0.89953808     0.11100
H2332       H  0.71385817  0.55973893  0.86762870     0.07700
C2333       C  0.78002298  0.45953470  0.68413458    -0.11400
C2334       C  0.75113528  0.44504248  0.68706210     0.05700
C2335       C  0.73718822  0.41669715  0.69216670    -0.10200
C2336       C  0.75180220  0.40355241  0.69562500    -0.11800
C2337       C  0.78075161  0.41829679  0.69394889    -0.01600
C2338       C  0.79471100  0.44619800  0.68736553    -0.10700
C2339       C  0.73553409  0.45943041  0.68722668     0.05700
H2340       H  0.71503824  0.40491870  0.69484680     0.07600
H2341       H  0.74047079  0.38196968  0.70052398     0.11100
H2342       H  0.81703349  0.45803418  0.68599415     0.11400
H2343       H  0.79130244  0.48132777  0.68001025     0.07700
C2344       C  0.74593973  0.48466040  0.69911968    -0.11400
C2345       C  0.72885871  0.49511343  0.70366320    -0.10700
C2346       C  0.70120096  0.48044793  0.69640128    -0.01600
C2347       C  0.69141310  0.45639240  0.68313156    -0.11800
C2348       C  0.70846360  0.44613290  0.67837767    -0.10200
H2349       H  0.76657201  0.49523622  0.70639892     0.07700
H2350       H  0.73658512  0.51341945  0.71432525     0.11400
H2351       H  0.67002280  0.44468492  0.67755382     0.11100
H2352       H  0.69995436  0.42692956  0.66884873     0.07700
C2353       C  0.55812526  0.55663111  0.73055331    -0.11400
C2354       C  0.57578948  0.58303245  0.73986126     0.05700
C2355       C  0.60447266  0.59405172  0.73947856    -0.10200
C2356       C  0.61508916  0.57825338  0.73090663    -0.11800
C2357       C  0.59715201  0.55134148  0.72232933    -0.01600
C2358       C  0.56860554  0.54108923  0.72186898    -0.10700
C2359       C  0.56343919  0.59794576  0.75047699     0.05700
H2360       H  0.61852707  0.61442057  0.74651734     0.07600
H2361       H  0.63716738  0.58679458  0.73152629     0.11100
H2362       H  0.55405890  0.52060179  0.71530094     0.11400
H2363       H  0.53597805  0.54781658  0.73023335     0.07700
C2364       C  0.57157944  0.62495634  0.74381903    -0.11400
C2365       C  0.55615096  0.63659253  0.75092632    -0.10700
C2366       C  0.53243553  0.62131778  0.76478219    -0.01600
C2367       C  0.52577339  0.59519380  0.77277721    -0.11800
C2368       C  0.54105422  0.58370402  0.76574642    -0.10200
H2369       H  0.58879679  0.63635885  0.73205153     0.07700
H2370       H  0.56177020  0.65674425  0.74448986     0.11400
H2371       H  0.50792478  0.58303317  0.78378261     0.11100
H2372       H  0.53464767  0.56307244  0.77149878     0.07700
C2373       C  0.41207033  0.21060484  0.84050170    -0.11400
C2374       C  0.41109913  0.18571507  0.84425385     0.05700
C2375       C  0.41052904  0.17699966  0.86719631    -0.10200
C2376       C  0.41417527  0.19436198  0.88586355    -0.11800
C2377       C  0.41869932  0.22071060  0.88173465    -0.01600
C2378       C  0.41597834  0.22800588  0.85908875    -0.10700
C2379       C  0.41644373  0.17236441  0.82452287     0.05700
H2380       H  0.40946298  0.15774719  0.87057879     0.07600
H2381       H  0.41640112  0.18840556  0.90318444     0.11100
H2382       H  0.41940831  0.24827352  0.85554167     0.11400
H2383       H  0.41272782  0.21801882  0.82307861     0.07700
C2384       C  0.40510704  0.17082782  0.80248493    -0.11400
C2385       C  0.41551371  0.16481497  0.78285354    -0.10700
C2386       C  0.43760262  0.16048601  0.78491457    -0.01600
C2387       C  0.44738866  0.15984408  0.80714567    -0.11800
C2388       C  0.43686619  0.16563719  0.82674139    -0.10200
H2389       H  0.38924562  0.17575829  0.80029242     0.07700
H2390       H  0.40754439  0.16543047  0.76594159     0.11400
H2391       H  0.46427954  0.15639070  0.80929822     0.11100
H2392       H  0.44631440  0.16698431  0.84340451     0.07700
C2393       C  0.49022572  0.36422265  0.82779131    -0.11400
C2394       C  0.50164793  0.39273133  0.83041365     0.05700
C2395       C  0.50156516  0.40323606  0.85250489    -0.10200
C2396       C  0.49185569  0.38578899  0.87186381    -0.11800
C2397       C  0.48269947  0.35769290  0.86949510    -0.01600
C2398       C  0.48110857  0.34691519  0.84718011    -0.10700
C2399       C  0.51780987  0.41157939  0.81112340     0.05700
H2400       H  0.51035277  0.42517446  0.85494331     0.07600
H2401       H  0.49348314  0.39464350  0.88888054     0.11100
H2402       H  0.47409199  0.32530664  0.84488750     0.11400
H2403       H  0.49033206  0.35565360  0.81101569     0.07700
C2404       C  0.54563510  0.43195601  0.81492224    -0.11400
C2405       C  0.56298015  0.44616761  0.79628549    -0.10700
C2406       C  0.55282335  0.44067139  0.77343453    -0.01600
C2407       C  0.52451347  0.42180023  0.76969425    -0.11800
C2408       C  0.50717643  0.40708203  0.78841245    -0.10200
H2409       H  0.55445526  0.43555637  0.83217591     0.07700
H2410       H  0.58474199  0.46056790  0.79964371     0.11400
H2411       H  0.51625917  0.41699693  0.75222515     0.11100
H2412       H  0.48578373  0.39137512  0.78507904     0.07700
C2413       C  0.52395518  0.22082038  0.97158461    -0.11400
C2414       C  0.52541678  0.20554434  0.95296432     0.05700
C2415       C  0.51127410  0.20335109  0.93233006    -0.10200
C2416       C  0.49749946  0.21751550  0.92978496    -0.11800
C2417       C  0.49702471  0.23371601  0.94796734    -0.01600
C2418       C  0.50952398  0.23453610  0.96919914    -0.10700
C2419       C  0.54452342  0.19511981  0.95352291     0.05700
H2420       H  0.51228565  0.19204224  0.91761055     0.07600
H2421       H  0.48778581  0.21643250  0.91330954     0.11100
H2422       H  0.50939468  0.24692918  0.98343199     0.11400
H2423       H  0.53469958  0.22282946  0.98767725     0.07700
C2424       C  0.57217419  0.21298376  0.96014717    -0.11400
C2425       C  0.59189002  0.20587891  0.95595843    -0.10700
C2426       C  0.58425937  0.18049814  0.94558064    -0.01600
C2427       C  0.55630081  0.16166686  0.94057793    -0.11800
C2428       C  0.53660372  0.16904750  0.94428140    -0.10200
H2429       H  0.57894330  0.23329192  0.96703877     0.07700
H2430       H  0.61337180  0.22071448  0.95994420     0.11400
H2431       H  0.55001617  0.14207527  0.93239097     0.11100
H2432       H  0.51540786  0.15489844  0.93902501     0.07700
C2433       C  0.65620916  0.44889720  0.95533996    -0.11400
C2434       C  0.64501279  0.42020215  0.95568887     0.05700
C2435       C  0.66309434  0.41032852  0.95543852    -0.10200
C2436       C  0.69130926  0.42836509  0.95218256    -0.11800
C2437       C  0.70218978  0.45674129  0.95012083    -0.01600
C2438       C  0.68473652  0.46709980  0.95277943    -0.10700
C2439       C  0.61486449  0.40050444  0.95293776     0.05700
H2440       H  0.65526117  0.38842820  0.95647958     0.07600
H2441       H  0.70453556  0.42006448  0.95043705     0.11100
H2442       H  0.69286795  0.48902135  0.95116343     0.11400
H2443       H  0.64287070  0.45717663  0.95542189     0.07700
C2444       C  0.59514743  0.40505045  0.96328568    -0.11400
C2445       C  0.56689673  0.38705187  0.95880354    -0.10700
C2446       C  0.55800578  0.36424467  0.94395598    -0.01600
C2447       C  0.57778513  0.35962390  0.93401759    -0.11800
C2448       C  0.60573069  0.37755345  0.93829821    -0.10200
H2449       H  0.60154754  0.42252223  0.97470067     0.07700
H2450       H  0.55210378  0.39110086  0.96677160     0.11400
H2451       H  0.57180177  0.34243862  0.92235324     0.11100
H2452       H  0.62024930  0.37381859  0.92940235     0.07700
C2453       C  0.27285821  0.24906040  0.92325675    -0.11400
C2454       C  0.29611357  0.25489171  0.91010734     0.05700
C2455       C  0.29264126  0.24555404  0.88710333    -0.10200
C2456       C  0.26617300  0.22901168  0.87785123    -0.11800
C2457       C  0.24280954  0.22214016  0.89128857    -0.01600
C2458       C  0.24633912  0.23310718  0.91376100    -0.10700
C2459       C  0.32347518  0.26690993  0.92109194     0.05700
H2460       H  0.31034582  0.24957584  0.87681067     0.07600
H2461       H  0.26389249  0.22076488  0.86048374     0.11100
H2462       H  0.22856232  0.22784181  0.92448142     0.11400
H2463       H  0.27520710  0.25593577  0.94110882     0.07700
C2464       C  0.34665663  0.29041920  0.91174237    -0.11400
C2465       C  0.37319402  0.29873543  0.91967044    -0.10700
C2466       C  0.37686250  0.28314624  0.93656959    -0.01600
C2467       C  0.35352900  0.26026965  0.94650683    -0.11800
C2468       C  0.32703202  0.25240798  0.93901076    -0.10200
H2469       H  0.34425164  0.30166076  0.89772708     0.07700
H2470       H  0.39088711  0.31625328  0.91155580     0.11400
H2471       H  0.35584261  0.24788700  0.95950472     0.11100
H2472       H  0.30939010  0.23397871  0.94617782     0.07700
C2473       C  0.83466241  0.49416684  0.09584906    -0.11400
C2474       C  0.82410453  0.50992371  0.08720951     0.05700
C2475       C  0.81546583  0.52269161  0.10306911    -0.10200
C2476       C  0.81691512  0.51942316  0.12696875    -0.11800
C2477       C  0.82706868  0.50331646  0.13562040    -0.01600
C2478       C  0.83614715  0.49091626  0.11975795    -0.10700
C2479       C  0.82169412  0.51265680  0.06177268     0.05700
H2480       H  0.80771408  0.53537546  0.09699845     0.07600
H2481       H  0.81003310  0.52953214  0.13866881     0.11100
H2482       H  0.84416889  0.47844791  0.12579224     0.11400
H2483       H  0.84124639  0.48383026  0.08411204     0.07700
C2484       C  0.84248111  0.51572949  0.04658635    -0.11400
C2485       C  0.83990712  0.51763480  0.02265104    -0.10700
C2486       C  0.81655384  0.51667544  0.01328338    -0.01600
C2487       C  0.79587219  0.51387548  0.02846517    -0.11800
C2488       C  0.79838869  0.51182075  0.05242958    -0.10200
H2489       H  0.86087823  0.51686934  0.05322028     0.07700
H2490       H  0.85632469  0.51995542  0.01147109     0.11400
H2491       H  0.77752839  0.51283121  0.02180727     0.11100
H2492       H  0.78180165  0.50904049  0.06362179     0.07700
C2493       C  0.99129289  0.58573786  0.26788007    -0.11400
C2494       C  0.98898784  0.60131322  0.25021100     0.05700
C2495       C  0.01258071  0.62575775  0.24274138    -0.10200
C2496       C  0.03848588  0.63389472  0.25215077    -0.11800
C2497       C  0.04111183  0.61722909  0.26867880    -0.01600
C2498       C  0.01717656  0.59352598  0.27694430    -0.10700
C2499       C  0.96270998  0.58958849  0.23753578     0.05700
H2500       H  0.01110246  0.63780721  0.22891989     0.07600
H2501       H  0.05663493  0.65209434  0.24529876     0.11100
H2502       H  0.01862578  0.58032358  0.28965043     0.11400
H2503       H  0.97324740  0.56665740  0.27363847     0.07700
C2504       C  0.95903613  0.57457752  0.21713834    -0.11400
C2505       C  0.93273917  0.55832261  0.20745807    -0.10700
C2506       C  0.90982964  0.55727463  0.21781291    -0.01600
C2507       C  0.91389471  0.57391603  0.23728109    -0.11800
C2508       C  0.94017399  0.58971804  0.24729024    -0.10200
H2509       H  0.97622021  0.57403636  0.20959315     0.07700
H2510       H  0.93003625  0.54546359  0.19258521     0.11400
H2511       H  0.89643369  0.57299240  0.24581423     0.11100
H2512       H  0.94268298  0.60092639  0.26322472     0.07700
C2513       C  0.45231129  0.17352292  0.55387550    -0.11400
C2514       C  0.45647239  0.15302263  0.56286162     0.05700
C2515       C  0.45717912  0.13426524  0.54741305    -0.10200
C2516       C  0.45420383  0.13618701  0.52351513    -0.11800
C2517       C  0.45053325  0.15699040  0.51445203    -0.01600
C2518       C  0.44943394  0.17552201  0.52996086    -0.10700
C2519       C  0.46037898  0.15138559  0.58821087     0.05700
H2520       H  0.45991683  0.11797831  0.55383316     0.07600
H2521       H  0.45504082  0.12148892  0.51212575     0.11100
H2522       H  0.44664803  0.19180769  0.52361768     0.11400
H2523       H  0.45189514  0.18842671  0.56530393     0.07700
C2524       C  0.48050540  0.14616628  0.59644571    -0.11400
C2525       C  0.48422833  0.14464299  0.62029094    -0.10700
C2526       C  0.46783171  0.14821568  0.63647049    -0.01600
C2527       C  0.44774200  0.15351258  0.62818986    -0.11800
C2528       C  0.44409530  0.15511476  0.60437450    -0.10200
H2529       H  0.49364031  0.14358594  0.58442263     0.07700
H2530       H  0.49993417  0.14063669  0.62603407     0.11400
H2531       H  0.43468340  0.15633814  0.64011882     0.11100
H2532       H  0.42823380  0.15888175  0.59859351     0.07700
C2533       C  0.31968412  0.08481911  0.43485440    -0.11400
C2534       C  0.31484980  0.07227895  0.41299739     0.05700
C2535       C  0.33674873  0.07349956  0.40071249    -0.10200
C2536       C  0.36353976  0.08821252  0.40978802    -0.11800
C2537       C  0.36876351  0.10249338  0.43092836    -0.01600
C2538       C  0.34650995  0.10004372  0.44368579    -0.10700
C2539       C  0.28797180  0.06184296  0.40176210     0.05700
H2540       H  0.33328582  0.06415903  0.38367369     0.07600
H2541       H  0.38040750  0.09011361  0.39948973     0.11100
H2542       H  0.35004884  0.11095509  0.45997035     0.11400
H2543       H  0.30296500  0.08430025  0.44436810     0.07700
C2544       C  0.26432306  0.03772180  0.40962063    -0.11400
C2545       C  0.23830872  0.03014435  0.40088065    -0.10700
C2546       C  0.23565766  0.04696709  0.38454233    -0.01600
C2547       C  0.25962756  0.07066151  0.37622119    -0.11800
C2548       C  0.28556315  0.07794891  0.38470281    -0.10200
H2549       H  0.26595557  0.02524730  0.42294360     0.07700
H2550       H  0.22022182  0.01181471  0.40764690     0.11400
H2551       H  0.25831341  0.08402984  0.36362012     0.11100
H2552       H  0.30368379  0.09682655  0.37870209     0.07700
C2553       C  0.47579867  0.34047603  0.04964206    -0.11400
C2554       C  0.46718790  0.31853378  0.06533629     0.05700
C2555       C  0.45580762  0.29167285  0.05634094    -0.10200
C2556       C  0.45284579  0.28688354  0.03235685    -0.11800
C2557       C  0.46131272  0.30884224  0.01671855    -0.01600
C2558       C  0.47296485  0.33571413  0.02569511    -0.10700
C2559       C  0.46926788  0.32363595  0.09091758     0.05700
H2560       H  0.44932575  0.27429618  0.06782725     0.07600
H2561       H  0.44393741  0.26594610  0.02607926     0.11100
H2562       H  0.47970887  0.35315518  0.01421318     0.11400
H2563       H  0.48419018  0.36135826  0.05584741     0.07700
C2564       C  0.49147090  0.34804675  0.10048614    -0.11400
C2565       C  0.49248555  0.35354437  0.12429768    -0.10700
C2566       C  0.47134709  0.33475478  0.13918454    -0.01600
C2567       C  0.44955675  0.31001794  0.12972817    -0.11800
C2568       C  0.44850792  0.30456069  0.10594514    -0.10200
H2569       H  0.50815047  0.36296485  0.08957127     0.07700
H2570       H  0.50975766  0.37262934  0.13100471     0.11400
H2571       H  0.43304082  0.29490920  0.14067510     0.11100
H2572       H  0.43094468  0.28568753  0.09927152     0.07700
C2573       C  0.62283039  0.39308025  0.21900833    -0.11400
C2574       C  0.63891657  0.41884715  0.20805502     0.05700
C2575       C  0.62534482  0.43127547  0.19834163    -0.10200
C2576       C  0.59648195  0.41833470  0.19978542    -0.11800
C2577       C  0.58056250  0.39270739  0.21101333    -0.01600
C2578       C  0.59414572  0.38017316  0.22036585    -0.10700
C2579       C  0.66966299  0.43252805  0.20732226     0.05700
H2580       H  0.63700119  0.45097868  0.18961317     0.07600
H2581       H  0.58672236  0.42869812  0.19256707     0.11100
H2582       H  0.58266922  0.36057514  0.22930115     0.11400
H2583       H  0.63244936  0.38308382  0.22718432     0.07700
C2584       C  0.68726780  0.46133371  0.20996778    -0.11400
C2585       C  0.71605769  0.47344565  0.21152146    -0.10700
C2586       C  0.72766016  0.45690297  0.21076868    -0.01600
C2587       C  0.71019868  0.42839400  0.20717599    -0.11800
C2588       C  0.68168486  0.41642402  0.20523030    -0.10200
H2589       H  0.67876906  0.47438486  0.21182155     0.07700
H2590       H  0.72906724  0.49545784  0.21448648     0.11400
H2591       H  0.71862267  0.41518284  0.20626615     0.11100
H2592       H  0.66899466  0.39435980  0.20247579     0.07700
C2593       C  0.43951640  0.26332263  0.36375719    -0.11400
C2594       C  0.41522316  0.24884043  0.35051306     0.05700
C2595       C  0.39541231  0.22138273  0.35664057    -0.10200
C2596       C  0.40070651  0.20830839  0.37484172    -0.11800
C2597       C  0.42607874  0.22247393  0.38666233    -0.01600
C2598       C  0.44487157  0.25029362  0.38149505    -0.10700
C2599       C  0.41342372  0.26161305  0.32861792     0.05700
H2600       H  0.37648187  0.20976059  0.34674757     0.07600
H2601       H  0.38594803  0.18679005  0.37858703     0.11100
H2602       H  0.46452050  0.26165529  0.39049442     0.11400
H2603       H  0.45546841  0.28425308  0.35935792     0.07700
C2604       C  0.42406143  0.29017206  0.32786152    -0.11400
C2605       C  0.43187833  0.30426341  0.30676383    -0.10700
C2606       C  0.42850305  0.28998416  0.28594692    -0.01600
C2607       C  0.41447857  0.26102323  0.28634629    -0.11800
C2608       C  0.40710507  0.24691628  0.30757719    -0.10200
H2609       H  0.42862424  0.30197553  0.34376530     0.07700
H2610       H  0.44236278  0.32657905  0.30687302     0.11400
H2611       H  0.41173296  0.24956382  0.27051193     0.11100
H2612       H  0.39903552  0.22494031  0.30756683     0.07700
C2613       C  0.37954942  0.37048513  0.23811710    -0.11400
C2614       C  0.38732768  0.39656558  0.22919286     0.05700
C2615       C  0.40791035  0.40823280  0.21202478    -0.10200
C2616       C  0.42190163  0.39525571  0.20521092    -0.11800
C2617       C  0.41566920  0.37016887  0.21533452    -0.01600
C2618       C  0.39362733  0.35738977  0.23125911    -0.10700
C2619       C  0.37650353  0.41317181  0.23925058     0.05700
H2620       H  0.41396532  0.42805383  0.20449302     0.07600
H2621       H  0.43848309  0.40554900  0.19269101     0.11100
H2622       H  0.38832620  0.33809105  0.23941673     0.11400
H2623       H  0.36376954  0.36102992  0.25138668     0.07700
C2624       C  0.34814129  0.40202047  0.24328849    -0.11400
C2625       C  0.33869980  0.41872292  0.25210919    -0.10700
C2626       C  0.35754790  0.44671643  0.25739127    -0.01600
C2627       C  0.38591205  0.45738632  0.25388416    -0.11800
C2628       C  0.39519225  0.44092479  0.24492948    -0.10200
H2629       H  0.33328762  0.38063902  0.23910106     0.07700
H2630       H  0.31672468  0.40985418  0.25452134     0.11400
H2631       H  0.40115204  0.47878336  0.25766342     0.11100
H2632       H  0.41719967  0.44998664  0.24246562     0.07700
C2633       C  0.72012414  0.64500316  0.42952138    -0.11400
C2634       C  0.70293650  0.64896811  0.41475022     0.05700
C2635       C  0.67681462  0.62646341  0.40881988    -0.10200
C2636       C  0.66847497  0.59996459  0.41687575    -0.11800
C2637       C  0.68636969  0.59574086  0.43069227    -0.01600
C2638       C  0.71196060  0.61866252  0.43740193    -0.10700
C2639       C  0.71454251  0.67575248  0.40304540     0.05700
H2640       H  0.66351314  0.62919537  0.39712953     0.07600
H2641       H  0.64871830  0.58264548  0.41131872     0.11100
H2642       H  0.72611160  0.61611582  0.44814069     0.11400
H2643       H  0.74045989  0.66219047  0.43406876     0.07700
C2644       C  0.70985552  0.69612637  0.41141003    -0.11400
C2645       C  0.72574167  0.72326201  0.40305446    -0.10700
C2646       C  0.74660374  0.73017289  0.38649848    -0.01600
C2647       C  0.74974364  0.70915463  0.37714317    -0.11800
C2648       C  0.73388221  0.68224121  0.38535769    -0.10200
H2649       H  0.69512832  0.69140625  0.42525095     0.07700
H2650       H  0.72303260  0.73911300  0.41065437     0.11400
H2651       H  0.76548961  0.71380626  0.36426075     0.11100
H2652       H  0.73777902  0.66672510  0.37881718     0.07700
C2653       C  0.67178020  0.53516517  0.55295558    -0.11400
C2654       C  0.64725168  0.51276860  0.56226282     0.05700
C2655       C  0.62851847  0.49195542  0.54705304    -0.10200
C2656       C  0.63383321  0.49372286  0.52326546    -0.11800
C2657       C  0.65830153  0.51598321  0.51411163    -0.01600
C2658       C  0.67739824  0.53655641  0.52916370    -0.10700
C2659       C  0.64142894  0.51077910  0.58769670     0.05700
H2660       H  0.60982860  0.47402551  0.55349694     0.07600
H2661       H  0.61892652  0.47741218  0.51199998     0.11100
H2662       H  0.69629740  0.55405550  0.52244549     0.11400
H2663       H  0.68652109  0.55188428  0.56395410     0.07700
C2664       C  0.66319746  0.52111010  0.60381316    -0.11400
C2665       C  0.65789935  0.51880885  0.62759912    -0.10700
C2666       C  0.63065490  0.50568597  0.63604832    -0.01600
C2667       C  0.60877612  0.49524264  0.62008572    -0.11800
C2668       C  0.61411594  0.49802188  0.59617244    -0.10200
H2669       H  0.68441718  0.53045032  0.59814170     0.07700
H2670       H  0.67525625  0.52677245  0.63942959     0.11400
H2671       H  0.58759359  0.48516726  0.62607474     0.11100
H2672       H  0.59678941  0.49028895  0.58436534     0.07700
C2673       C  0.75203883  0.54566484  0.33798646    -0.11400
C2674       C  0.77811142  0.54942309  0.34239839     0.05700
C2675       C  0.78692075  0.55134288  0.36549003    -0.10200
C2676       C  0.76907557  0.54738620  0.38382789    -0.11800
C2677       C  0.74206476  0.54091084  0.37922679    -0.01600
C2678       C  0.73403954  0.54112951  0.35626000    -0.10700
C2679       C  0.79320148  0.54583831  0.32317510     0.05700
H2680       H  0.80692376  0.55417279  0.36927744     0.07600
H2681       H  0.77551269  0.54697999  0.40144188     0.11100
H2682       H  0.71321871  0.53606098  0.35239547     0.11400
H2683       H  0.74461400  0.54375674  0.32036145     0.07700
C2684       C  0.80039263  0.52579832  0.32523526    -0.11400
C2685       C  0.80787870  0.51677361  0.30566832    -0.10700
C2686       C  0.80865367  0.52785440  0.28372958    -0.01600
C2687       C  0.80400202  0.54971809  0.28198567    -0.11800
C2688       C  0.79605257  0.55846462  0.30156445    -0.10200
H2689       H  0.79806791  0.51550192  0.34162126     0.07700
H2690       H  0.81157083  0.50001919  0.30749701     0.11400
H2691       H  0.80443884  0.55857333  0.26525751     0.11100
H2692       H  0.79062060  0.57397773  0.29960189     0.07700
C2693       C  0.56651526  0.47753548  0.34916131    -0.11400
C2694       C  0.57489846  0.47200410  0.32795268     0.05700
C2695       C  0.60117755  0.47535722  0.32644966    -0.10200
C2696       C  0.61794581  0.48226984  0.34611669    -0.11800
C2697       C  0.60897919  0.48642528  0.36761713    -0.01600
C2698       C  0.58353182  0.48496048  0.36876987    -0.10700
C2699       C  0.55500158  0.45857990  0.30857659     0.05700
H2700       H  0.60801599  0.47085296  0.31041467     0.07600
H2701       H  0.63752648  0.48340489  0.34468948     0.11100
H2702       H  0.57606735  0.48797769  0.38512626     0.11400
H2703       H  0.54632821  0.47502536  0.35076542     0.07700
C2704       C  0.52911962  0.43480129  0.31304491    -0.11400
C2705       C  0.51321074  0.41748202  0.29486541    -0.10700
C2706       C  0.52260892  0.42393811  0.27189563    -0.01600
C2707       C  0.54696030  0.44917512  0.26714327    -0.11800
C2708       C  0.56321876  0.46629841  0.28540886    -0.10200
H2709       H  0.52240314  0.42819333  0.33070571     0.07700
H2710       H  0.49471484  0.39786054  0.29888803     0.11400
H2711       H  0.55483464  0.45423254  0.24957043     0.11100
H2712       H  0.58306865  0.48456866  0.28153653     0.07700
C2713       C  0.51241639  0.31422577  0.46435586    -0.11400
C2714       C  0.54123894  0.32827239  0.46106685     0.05700
C2715       C  0.55330773  0.31275866  0.45569056    -0.10200
C2716       C  0.53703475  0.28432481  0.45254962    -0.11800
C2717       C  0.50816719  0.27053294  0.45444565    -0.01600
C2718       C  0.49601973  0.28559367  0.46107280    -0.10700
C2719       C  0.55863195  0.35899318  0.46083660     0.05700
H2720       H  0.57527578  0.32267160  0.45253689     0.07600
H2721       H  0.54705660  0.27331240  0.44756005     0.11100
H2722       H  0.47378131  0.27550058  0.46262277     0.11400
H2723       H  0.50244195  0.32541803  0.46882467     0.07700
C2724       C  0.54848310  0.37484733  0.45142833    -0.11400
C2725       C  0.56644216  0.40298785  0.44685365    -0.10700
C2726       C  0.59481583  0.41547610  0.45115204    -0.01600
C2727       C  0.60465686  0.40028026  0.46202108    -0.11800
C2728       C  0.58667948  0.37248139  0.46722212    -0.10200
H2729       H  0.52710289  0.36524097  0.44613978     0.07700
H2730       H  0.55852217  0.41445402  0.43842091     0.11400
H2731       H  0.62648140  0.40973965  0.46578952     0.11100
H2732       H  0.59508556  0.36126199  0.47526865     0.07700
C2733       C  0.83304004  0.35590157  0.54248375    -0.11400
C2734       C  0.81796923  0.33520910  0.55894734     0.05700
C2735       C  0.79990605  0.30796639  0.55127684    -0.10200
C2736       C  0.79711975  0.30153430  0.52760058    -0.11800
C2737       C  0.81248919  0.32220066  0.51112954    -0.01600
C2738       C  0.83040341  0.34947989  0.51887838    -0.10700
C2739       C  0.82171262  0.34186164  0.58407777     0.05700
H2740       H  0.78777733  0.29165472  0.56361187     0.07600
H2741       H  0.78296404  0.28040756  0.52221862     0.11100
H2742       H  0.84241804  0.36600970  0.50668826     0.11400
H2743       H  0.84729634  0.37699964  0.54789191     0.07700
C2744       C  0.82416445  0.32433635  0.59962760    -0.11400
C2745       C  0.82756630  0.33025019  0.62330732    -0.10700
C2746       C  0.82864281  0.35388173  0.63207551    -0.01600
C2747       C  0.82666474  0.37174557  0.61649293    -0.11800
C2748       C  0.82321753  0.36577265  0.59269367    -0.10200
H2749       H  0.82366312  0.30609970  0.59343800     0.07700
H2750       H  0.82929408  0.31617586  0.63478626     0.11400
H2751       H  0.82724811  0.39000588  0.62272792     0.11100
H2752       H  0.82123392  0.37957687  0.58107458     0.07700
C2753       C  0.86119544  0.40605851  0.28013373    -0.11400
C2754       C  0.86558417  0.41595440  0.30306724     0.05700
C2755       C  0.87114352  0.44273021  0.30727236    -0.10200
C2756       C  0.86882355  0.45785713  0.28936980    -0.11800
C2757       C  0.86151200  0.44667763  0.26696236    -0.01600
C2758       C  0.85938117  0.42145093  0.26212270    -0.10700
C2759       C  0.85841816  0.39683834  0.32284859     0.05700
H2760       H  0.87436123  0.45078199  0.32478371     0.07600
H2761       H  0.87041864  0.47724863  0.29342336     0.11100
H2762       H  0.85338630  0.41231502  0.24499004     0.11400
H2763       H  0.85695733  0.38550375  0.27646929     0.07700
C2764       C  0.83301327  0.37157741  0.32255815    -0.11400
C2765       C  0.82241743  0.35626979  0.34284043    -0.10700
C2766       C  0.83713091  0.36572861  0.36377301    -0.01600
C2767       C  0.86353674  0.38984164  0.36373211    -0.11800
C2768       C  0.87400501  0.40542202  0.34343079    -0.10200
H2769       H  0.82034949  0.36463918  0.30705677     0.07700
H2770       H  0.80211991  0.33758812  0.34235186     0.11400
H2771       H  0.87529563  0.39753640  0.37965666     0.11100
H2772       H  0.89363569  0.42484602  0.34406065     0.07700
C2773       C  0.65144331  0.25995042  0.44876867    -0.11400
C2774       C  0.63603603  0.23202347  0.45514848     0.05700
C2775       C  0.65006728  0.21900647  0.46228153    -0.10200
C2776       C  0.67906572  0.23311331  0.46096374    -0.11800
C2777       C  0.69423251  0.26031765  0.45244574    -0.01600
C2778       C  0.68016497  0.27392062  0.44740547    -0.10700
C2779       C  0.60586900  0.21609102  0.45064320     0.05700
H2780       H  0.63857377  0.19745117  0.46720148     0.07600
H2781       H  0.68937554  0.22210412  0.46491290     0.11100
H2782       H  0.69127394  0.29496631  0.44109855     0.11400
H2783       H  0.64107371  0.27051279  0.44345597     0.07700
C2784       C  0.58630400  0.20030991  0.46784352    -0.11400
C2785       C  0.55783527  0.18763995  0.46317222    -0.10700
C2786       C  0.54875255  0.19047181  0.44119642    -0.01600
C2787       C  0.56854673  0.20503567  0.42382904    -0.11800
C2788       C  0.59661361  0.21768507  0.42851050    -0.10200
H2789       H  0.59304585  0.19871090  0.48502340     0.07700
H2790       H  0.54307892  0.17661396  0.47691411     0.11400
H2791       H  0.56240581  0.20737814  0.40661384     0.11100
H2792       H  0.61126772  0.22924897  0.41482439     0.07700
C2793       C  0.72239119  0.42322679  0.45730542    -0.11400
C2794       C  0.75117783  0.43750269  0.46074568     0.05700
C2795       C  0.76574941  0.46647880  0.46274907    -0.10200
C2796       C  0.75191311  0.48080079  0.46037995    -0.11800
C2797       C  0.72341326  0.46635168  0.45567346    -0.01600
C2798       C  0.70875022  0.43745983  0.45475926    -0.10700
C2799       C  0.76559904  0.42192221  0.45994809     0.05700
H2800       H  0.78789147  0.47807764  0.46550014     0.07600
H2801       H  0.76370372  0.50315075  0.46083778     0.11100
H2802       H  0.68679115  0.42588292  0.45102032     0.11400
H2803       H  0.71047816  0.40102725  0.45518191     0.07700
C2804       C  0.75246224  0.39493154  0.46882316    -0.11400
C2805       C  0.76214065  0.37762231  0.46327246    -0.10700
C2806       C  0.78565510  0.38713035  0.44935293    -0.01600
C2807       C  0.80050772  0.41481075  0.44231634    -0.11800
C2808       C  0.79046736  0.43210861  0.44748832    -0.10200
H2809       H  0.73373273  0.38663722  0.47900189     0.07700
H2810       H  0.75046735  0.35630486  0.46892110     0.11400
H2811       H  0.81857037  0.42239789  0.43136506     0.11100
H2812       H  0.80103952  0.45271894  0.44027814     0.07700
C2813       C  0.90069765  0.29034068  0.41139555    -0.11400
C2814       C  0.88961226  0.26168008  0.41172018     0.05700
C2815       C  0.86306843  0.24438176  0.42087372    -0.10200
C2816       C  0.84745229  0.25516019  0.42874747    -0.11800
C2817       C  0.85777487  0.28365277  0.42759458    -0.01600
C2818       C  0.88482219  0.30125030  0.41913143    -0.10700
C2819       C  0.90464432  0.24900790  0.40197478     0.05700
H2820       H  0.85420215  0.22227948  0.42170718     0.07600
H2821       H  0.82685813  0.24087418  0.43523822     0.11100
H2822       H  0.89342532  0.32327652  0.41797084     0.11400
H2823       H  0.92118163  0.30412326  0.40444625     0.07700
C2824       C  0.89072441  0.22635946  0.38686656    -0.11400
C2825       C  0.90272834  0.21144401  0.38006496    -0.10700
C2826       C  0.92903082  0.21870638  0.38821160    -0.01600
C2827       C  0.94368328  0.24234332  0.40234662    -0.11800
C2828       C  0.93159897  0.25742312  0.40911685    -0.10200
H2829       H  0.87008437  0.21968278  0.38083092     0.07700
H2830       H  0.89093434  0.19363604  0.36892854     0.11400
H2831       H  0.96401502  0.24856827  0.40886926     0.11100
H2832       H  0.94273983  0.27479627  0.42080738     0.07700
C2833       C  0.65201986  0.14702583  0.10043631    -0.11400
C2834       C  0.63367698  0.14696169  0.08408228     0.05700
C2835       C  0.60897722  0.14437317  0.09204465    -0.10200
C2836       C  0.60286080  0.14205035  0.11578477    -0.11800
C2837       C  0.62137607  0.14240978  0.13213105    -0.01600
C2838       C  0.64597953  0.14482484  0.12412967    -0.10700
C2839       C  0.64018753  0.14942273  0.05883153     0.05700
H2840       H  0.59455288  0.14463344  0.07993699     0.07600
H2841       H  0.58386869  0.14045462  0.12134593     0.11100
H2842       H  0.66069394  0.14504320  0.13620445     0.11400
H2843       H  0.67096820  0.14850426  0.09491318     0.07700
C2844       C  0.66732992  0.16718794  0.05069955    -0.11400
C2845       C  0.67316747  0.16972820  0.02686907    -0.10700
C2846       C  0.65199096  0.15451518  0.01065329    -0.01600
C2847       C  0.62496311  0.13649424  0.01888705    -0.11800
C2848       C  0.61916351  0.13398911  0.04260588    -0.10200
H2849       H  0.68398633  0.17957664  0.06273096     0.07700
H2850       H  0.69417456  0.18381103  0.02115322     0.11400
H2851       H  0.60807652  0.12434787  0.00697408     0.11100
H2852       H  0.59816219  0.11974364  0.04824594     0.07700
C2853       C  0.51674202  0.19800938  0.18662429    -0.11400
C2854       C  0.53120074  0.22662614  0.19048826     0.05700
C2855       C  0.56022878  0.24136123  0.19116683    -0.10200
C2856       C  0.57437416  0.22745585  0.19083134    -0.11800
C2857       C  0.55979756  0.19855798  0.18952384    -0.01600
C2858       C  0.53100630  0.18402068  0.18606974    -0.10700
C2859       C  0.51660005  0.24064015  0.19777063     0.05700
H2860       H  0.57185292  0.26351761  0.19371903     0.07600
H2861       H  0.59658496  0.23915010  0.19331220     0.11100
H2862       H  0.51929380  0.16169344  0.18518329     0.11400
H2863       H  0.49435831  0.18623097  0.18605491     0.07700
C2864       C  0.49440516  0.23851815  0.18512460    -0.11400
C2865       C  0.48231904  0.25354190  0.19209995    -0.10700
C2866       C  0.49200380  0.27042566  0.21202511    -0.01600
C2867       C  0.51321694  0.27114187  0.22516132    -0.11800
C2868       C  0.52534959  0.25656949  0.21809274    -0.10200
H2869       H  0.48711428  0.22605991  0.16952264     0.07700
H2870       H  0.46599379  0.25252738  0.18161982     0.11400
H2871       H  0.52121229  0.28372169  0.24065316     0.11100
H2872       H  0.54192104  0.25797358  0.22850532     0.07700
C2873       C  0.67525466  0.18333992  0.32034070    -0.11400
C2874       C  0.70228363  0.18867974  0.31890460     0.05700
C2875       C  0.71175243  0.18429136  0.29780501    -0.10200
C2876       C  0.69478228  0.17585215  0.27813916    -0.11800
C2877       C  0.66844246  0.17245574  0.27921392    -0.01600
C2878       C  0.65856232  0.17553454  0.30063274    -0.10700
C2879       C  0.72150289  0.20324984  0.33827243     0.05700
H2880       H  0.73265996  0.18859391  0.29633465     0.07600
H2881       H  0.70296211  0.17381957  0.26178158     0.11100
H2882       H  0.63835345  0.17304447  0.30192805     0.11400
H2883       H  0.66773686  0.18707342  0.33636218     0.07700
C2884       C  0.74436302  0.22988055  0.33449829    -0.11400
C2885       C  0.75805838  0.24727460  0.35326761    -0.10700
C2886       C  0.74946386  0.23808230  0.37606902    -0.01600
C2887       C  0.72850765  0.21052813  0.37991276    -0.11800
C2888       C  0.71434118  0.19328279  0.36107227    -0.10200
H2889       H  0.75002633  0.23806687  0.31706304     0.07700
H2890       H  0.77421553  0.26849167  0.34995494     0.11400
H2891       H  0.72145119  0.20313121  0.39736224     0.11100
H2892       H  0.69665341  0.17281324  0.36427342     0.07700
C2893       C  0.47800910  0.13777873  0.32328222    -0.11400
C2894       C  0.48756324  0.11949591  0.32453149     0.05700
C2895       C  0.48651490  0.10727933  0.34600477    -0.10200
C2896       C  0.47811102  0.11478652  0.36608582    -0.11800
C2897       C  0.47085212  0.13490069  0.36515852    -0.01600
C2898       C  0.46983871  0.14547192  0.34337516    -0.10700
C2899       C  0.50250726  0.11679778  0.30447863     0.05700
H2900       H  0.49350601  0.09292540  0.34744712     0.07600
H2901       H  0.47901322  0.10612356  0.38254104     0.11100
H2902       H  0.46417968  0.16086185  0.34199826     0.11400
H2903       H  0.47876293  0.14771470  0.30704867     0.07700
C2904       C  0.49299942  0.11474625  0.28156098    -0.11400
C2905       C  0.51001063  0.11786316  0.26266685    -0.10700
C2906       C  0.53693025  0.12358233  0.26647750    -0.01600
C2907       C  0.54571014  0.12386717  0.28927825    -0.11800
C2908       C  0.52860506  0.12023168  0.30806796    -0.10200
H2909       H  0.47294349  0.11203726  0.27828949     0.07700
H2910       H  0.50298663  0.11796433  0.24522272     0.11400
H2911       H  0.56650280  0.12849628  0.29260093     0.11100
H2912       H  0.53669789  0.12225812  0.32544605     0.07700
C2913       C  0.70481710  0.28978242  0.18597303    -0.11400
C2914       C  0.73209240  0.29905057  0.19254125     0.05700
C2915       C  0.73882316  0.27986928  0.20026642    -0.10200
C2916       C  0.71823255  0.25194307  0.20233497    -0.11800
C2917       C  0.69064910  0.24313458  0.19730783    -0.01600
C2918       C  0.68418776  0.26208917  0.18861050    -0.10700
C2919       C  0.75208409  0.32896736  0.19467035     0.05700
H2920       H  0.75973630  0.28671983  0.20561654     0.07600
H2921       H  0.72349144  0.23765012  0.20941924     0.11100
H2922       H  0.66294881  0.25565278  0.18484311     0.11400
H2923       H  0.69912855  0.30430333  0.18034264     0.07700
C2924       C  0.75674859  0.34695978  0.17614320    -0.11400
C2925       C  0.77228746  0.37559341  0.17955523    -0.10700
C2926       C  0.78256866  0.38640117  0.20168767    -0.01600
C2927       C  0.77867454  0.36835963  0.21994097    -0.11800
C2928       C  0.76378420  0.33992489  0.21641038    -0.10200
H2929       H  0.74770456  0.33880472  0.15928134     0.07700
H2930       H  0.77509539  0.38918025  0.16527060     0.11400
H2931       H  0.78670281  0.37628568  0.23711898     0.11100
H2932       H  0.76013357  0.32642865  0.23100416     0.07700
C2933       C  0.53558271  0.97560686  0.26383389    -0.11400
C2934       C  0.55697605  0.98368208  0.24775807     0.05700
C2935       C  0.56603874  0.96559884  0.24247946    -0.10200
C2936       C  0.55244124  0.93898747  0.25201512    -0.11800
C2937       C  0.52984839  0.93033845  0.26708660    -0.01600
C2938       C  0.52226648  0.94934002  0.27348811    -0.10700
C2939       C  0.56810867  0.01024948  0.23560759     0.05700
H2940       H  0.58258923  0.97154414  0.23013406     0.07600
H2941       H  0.55873800  0.92481010  0.24671351     0.11100
H2942       H  0.50514204  0.94354679  0.28515855     0.11400
H2943       H  0.52858026  0.98944407  0.26840831     0.07700
C2944       C  0.54967130  0.01630473  0.22505488    -0.11400
C2945       C  0.55911463  0.04241437  0.21596948    -0.10700
C2946       C  0.58723459  0.06320018  0.21736232    -0.01600
C2947       C  0.60596288  0.05669542  0.22689230    -0.11800
C2948       C  0.59643899  0.03030545  0.23585690    -0.10200
H2949       H  0.52776178  0.00096357  0.22441911     0.07700
H2950       H  0.54410608  0.04654616  0.20860156     0.11400
H2951       H  0.62775269  0.07222226  0.22817889     0.11100
H2952       H  0.61096623  0.02596051  0.24393868     0.07700
loop_ 
_geom_bond_atom_site_label_1 
_geom_bond_atom_site_label_2 
_geom_bond_distance 
_geom_bond_site_symmetry_2 
_ccdc_geom_bond_type 
Fe1          O17   2.069       .  S
Fe1           O7   2.081       .  S
Fe1          O14   2.091       .  S
Fe1           O6   2.059       .  S
Fe1          O12   1.987       .  S
Fe2           O5   2.050       .  S
Fe2           O9   2.051       .  S
Fe2          O13   2.050       .  S
Fe2          O18   2.053       .  S
Fe2          O12   1.962       .  S
Fe3          O21   2.076       .  S
Fe3           O8   2.059       .  S
Fe3          O15   2.054       .  S
Fe3           O4   2.066       .  S
Fe3          O12   1.990       .  S
O4           C11   1.269       .  A
O5           C19   1.268       .  A
O6           C11   1.270       .  A
O7           C10   1.273       .  A
O8           C20   1.265       .  A
O9           C22   1.265       .  A
C10          O15   1.267       .  A
C10        C2837   1.485       .  S
C11        C2946   1.482       .  S
O13          C16   1.268       .  A
O14          C16   1.274       .  A
C16        C2906   1.475       .  S
O17          C22   1.267       .  A
O18          C20   1.265       .  A
C19          O21   1.272       .  A
C19        C2917   1.467       .  S
C20        C2877   1.475       .  S
C22        C2857   1.475       .  S
Fe23         O39   2.086       .  S
Fe23         O29   2.058       .  S
Fe23         O36   2.075       .  S
Fe23         O28   2.077       .  S
Fe23         O34   1.983       .  S
Fe24         O27   2.050       .  S
Fe24         O31   2.045       .  S
Fe24         O35   2.052       .  S
Fe24         O40   2.046       .  S
Fe24         O34   1.960       .  S
Fe25         O43   2.058       .  S
Fe25         O30   2.094       .  S
Fe25         O37   2.087       .  S
Fe25         O26   2.048       .  S
Fe25         O34   1.988       .  S
O26          C33   1.267       .  A
O27          C41   1.264       .  A
O28          C33   1.272       .  A
O29          C32   1.269       .  A
O30          C42   1.275       .  A
O31          C44   1.269       .  A
C32          O37   1.272       .  A
C32        C2817   1.491       .  S
C33        C2737   1.482       .  S
O35          C38   1.264       .  A
O36          C38   1.266       .  A
C38        C2777   1.482       .  S
O39          C44   1.274       .  A
O40          C42   1.268       .  A
C41          O43   1.263       .  A
C41        C2766   1.474       .  S
C42        C2806   1.470       .  S
C44        C2886   1.470       .  S
Fe45         O61   2.080       .  S
Fe45         O51   2.058       .  S
Fe45         O58   2.073       .  S
Fe45         O50   2.075       .  S
Fe45         O56   1.988       .  S
Fe46         O49   2.061       .  S
Fe46         O53   2.047       .  S
Fe46         O57   2.051       .  S
Fe46         O62   2.051       .  S
Fe46         O56   1.961       .  S
Fe47         O65   2.064       .  S
Fe47         O52   2.081       .  S
Fe47         O59   2.074       .  S
Fe47         O48   2.052       .  S
Fe47         O56   1.983       .  S
O48          C55   1.267       .  A
O49          C63   1.265       .  A
O50          C55   1.270       .  A
O51          C54   1.270       .  A
O52          C64   1.272       .  A
O53          C66   1.268       .  A
C54          O59   1.271       .  A
C54        C2637   1.479       .  S
C55        C2657   1.475       .  S
O57          C60   1.265       .  A
O58          C60   1.268       .  A
C60        C2797   1.475       .  S
O61          C66   1.272       .  A
O62          C64   1.269       .  A
C63          O65   1.265       .  A
C63        C2697   1.480       .  S
C64        C2726   1.469       .  S
C66        C2677   1.468       .  S
Fe67         O83   2.084       .  S
Fe67         O73   2.069       .  S
Fe67         O80   2.079       .  S
Fe67         O72   2.085       .  S
Fe67         O78   1.961       .  S
Fe68         O71   2.068       .  S
Fe68         O75   2.057       .  S
Fe68         O79   2.048       .  S
Fe68         O84   2.049       .  S
Fe68         O78   1.940       .  S
Fe69         O87   2.073       .  S
Fe69         O74   2.090       .  S
Fe69         O81   2.075       .  S
Fe69         O70   2.074       .  S
Fe69         O78   1.968       .  S
O70          C77   1.275       .  A
O71          C85   1.273       .  A
O72          C77   1.277       .  A
O73          C76   1.269       .  A
O74          C86   1.269       .  A
O75          C88   1.270       .  A
C76          O81   1.269       .  A
C76        C2566   1.488       .  S
C77        C2617   1.487       .  S
O79          C82   1.267       .  A
O80          C82   1.271       .  A
C82        C2706   1.468       .  S
O83          C88   1.273       .  A
O84          C86   1.263       .  A
C85          O87   1.273       .  A
C85        C2866   1.484       .  S
C86        C2606   1.477       .  S
C88        C2577   1.487       .  S
Fe89        O105   2.079       .  S
Fe89         O95   2.076       .  S
Fe89        O102   2.091       .  S
Fe89         O94   2.061       .  S
Fe89        O100   1.955       .  S
Fe90         O93   2.056       .  S
Fe90         O97   2.053       .  S
Fe90        O101   2.045       .  S
Fe90        O106   2.063       .  S
Fe90        O100   1.933       .  S
Fe91        O109   2.097       .  S
Fe91         O96   2.081       .  S
Fe91        O103   2.063       .  S
Fe91         O92   2.082       .  S
Fe91        O100   1.951       .  S
O92          C99   1.272       .  A
O93         C107   1.269       .  A
O94          C99   1.269       .  A
O95          C98   1.275       .  A
O96         C108   1.272       .  A
O97         C110   1.266       .  A
C98         O103   1.273       .  A
C98        C2537   1.473       .  S
C99        C2517   1.487       .  S
O101        C104   1.270       .  A
O102        C104   1.276       .  A
C104       C2717   1.478       .  S
O105        C110   1.268       .  A
O106        C108   1.269       .  A
C107        O109   1.275       .  A
C107       C2897   1.486       .  S
C108       C2786   1.484       .  S
C110       C2597   1.472       .  S
Fe111       O127   2.066       .  S
Fe111       O117   2.064       .  S
Fe111       O124   2.089       .  S
Fe111       O116   2.054       .  S
Fe111       O122   1.973       .  S
Fe112       O115   2.054       .  S
Fe112       O119   2.063       .  S
Fe112       O123   2.043       .  S
Fe112       O128   2.046       .  S
Fe112       O122   1.949       .  S
Fe113       O131   2.103       .  S
Fe113       O118   2.060       .  S
Fe113       O125   2.061       .  S
Fe113       O114   2.087       .  S
Fe113       O122   1.971       .  S
O114        C121   1.278       .  A
O115        C129   1.274       .  A
O116        C121   1.273       .  A
O117        C120   1.266       .  A
O118        C130   1.262       .  A
O119        C132   1.268       .  A
C120        O125   1.266       .  A
C120       C2477   1.485       .  S
C121       C2506   1.473       .  S
O123        C126   1.265       .  A
O124        C126   1.271       .  A
C126       C2757   1.467       .  S
O127        C132   1.268       .  A
O128        C130   1.261       .  A
C129        O131   1.281       .  A
C129       C2586   1.480       .  S
C130       C2686   1.475       .  S
C132       C2926   1.471       .  S
Fe133       O149   2.073       .  S
Fe133       O139   2.071       .  S
Fe133       O146   2.095       .  S
Fe133       O138   2.062       .  S
Fe133       O144   1.976       .  S
Fe134       O137   2.048       .  S
Fe134       O141   2.067       .  S
Fe134       O145   2.035       .  S
Fe134       O150   2.050       .  S
Fe134       O144   1.954       .  S
Fe135       O153   2.082       .  S
Fe135       O140   2.072       .  S
Fe135       O147   2.061       .  S
Fe135       O136   2.075       .  S
Fe135       O144   1.976       .  S
O136        C143   1.275       .  A
O137        C151   1.274       .  A
O138        C143   1.273       .  A
O139        C142   1.268       .  A
O140        C152   1.264       .  A
O141        C154   1.267       .  A
C142        O147   1.266       .  A
C142       C2557   1.488   1_556  S
C143       C2466   1.474       .  S
O145        C148   1.266       .  A
O146        C148   1.274       .  A
C148       C2377   1.470       .  S
O149        C154   1.267       .  A
O150        C152   1.261       .  A
C151        O153   1.277       .  A
C151       C2446   1.478       .  S
C152       C2397   1.479       .  S
C154       C2417   1.476       .  S
Fe155       O171   2.093       .  S
Fe155       O161   2.058       .  S
Fe155       O168   2.071       .  S
Fe155       O160   2.083       .  S
Fe155       O166   1.987       .  S
Fe156       O159   2.054       .  S
Fe156       O163   2.044       .  S
Fe156       O167   2.054       .  S
Fe156       O172   2.048       .  S
Fe156       O166   1.963       .  S
Fe157       O175   2.063       .  S
Fe157       O162   2.091       .  S
Fe157       O169   2.087       .  S
Fe157       O158   2.049       .  S
Fe157       O166   1.991       .  S
O158        C165   1.266       .  A
O159        C173   1.265       .  A
O160        C165   1.272       .  A
O161        C164   1.270       .  A
O162        C174   1.274       .  A
O163        C176   1.267       .  A
C164        O169   1.274       .  A
C164       C2357   1.490       .  S
C165       C2666   1.482       .  S
O167        C170   1.266       .  A
O168        C170   1.268       .  A
C170       C2297   1.481       .  S
O171        C176   1.274       .  A
O172        C174   1.267       .  A
C173        O175   1.265       .  A
C173       C2317   1.473       .  S
C174       C2346   1.470       .  S
C176       C2406   1.478       .  S
Fe177       O193   2.086       .  S
Fe177       O183   2.064       .  S
Fe177       O190   2.073       .  S
Fe177       O182   2.071       .  S
Fe177       O188   1.983       .  S
Fe178       O181   2.045       .  S
Fe178       O185   2.042       .  S
Fe178       O189   2.048       .  S
Fe178       O194   2.055       .  S
Fe178       O188   1.960       .  S
Fe179       O197   2.069       .  S
Fe179       O184   2.086       .  S
Fe179       O191   2.080       .  S
Fe179       O180   2.055       .  S
Fe179       O188   1.979       .  S
O180        C187   1.264       .  A
O181        C195   1.262       .  A
O182        C187   1.268       .  A
O183        C186   1.274       .  A
O184        C196   1.275       .  A
O185        C198   1.264       .  A
C186        O191   1.276       .  A
C186       C2277   1.482       .  S
C187       C2526   1.486       .  S
O189        C192   1.268       .  A
O190        C192   1.270       .  A
C192       C2246   1.480       .  S
O193        C198   1.271       .  A
O194        C196   1.271       .  A
C195        O197   1.265       .  A
C195       C2386   1.478       .  S
C196       C2306   1.481       .  S
C198       C2266   1.474       .  S
Fe199       O215   2.076       .  S
Fe199       O205   2.087       .  S
Fe199       O212   2.097       .  S
Fe199       O204   2.061       .  S
Fe199       O210   1.981       .  S
Fe200       O203   2.051       .  S
Fe200       O207   2.052       .  S
Fe200       O211   2.045       .  S
Fe200       O216   2.051       .  S
Fe200       O210   1.954       .  S
Fe201       O219   2.098       .  S
Fe201       O206   2.064       .  S
Fe201       O213   2.050       .  S
Fe201       O202   2.086       .  S
Fe201       O210   1.982       .  S
O202        C209   1.274       .  A
O203        C217   1.270       .  A
O204        C209   1.271       .  A
O205        C208   1.273       .  A
O206        C218   1.264       .  A
O207        C220   1.265       .  A
C208        O213   1.267       .  A
C208       C2846   1.487   1_556  S
C209       C2217   1.489       .  S
O211        C214   1.269       .  A
O212        C214   1.277       .  A
C214       C2197   1.475       .  S
O215        C220   1.268       .  A
O216        C218   1.263       .  A
C217        O219   1.277       .  A
C217       C2426   1.475       .  S
C218       C2257   1.473       .  S
C220       C2177   1.483       .  S
Fe221       O237   2.084       .  S
Fe221       O227   2.073       .  S
Fe221       O234   2.081       .  S
Fe221       O226   2.072       .  S
Fe221       O232   1.984       .  S
Fe222       O225   2.051       .  S
Fe222       O229   2.046       .  S
Fe222       O233   2.047       .  S
Fe222       O238   2.050       .  S
Fe222       O232   1.959       .  S
Fe223       O241   2.070       .  S
Fe223       O228   2.079       .  S
Fe223       O235   2.069       .  S
Fe223       O224   2.055       .  S
Fe223       O232   1.981       .  S
O224        C231   1.267       .  A
O225        C239   1.263       .  A
O226        C231   1.269       .  A
O227        C230   1.274       .  A
O228        C240   1.273       .  A
O229        C242   1.267       .  A
C230        O235   1.273       .  A
C230       C2157   1.484       .  S
C231       C2746   1.481       .  S
O233        C236   1.264       .  A
O234        C236   1.269       .  A
C236       C2337   1.480       .  S
O237        C242   1.272       .  A
O238        C240   1.270       .  A
C239        O241   1.266       .  A
C239       C2206   1.481       .  S
C240       C2237   1.471       .  S
C242       C2137   1.470       .  S
Fe243       O259   2.058       .  S
Fe243       O249   2.069       .  S
Fe243       O256   2.084       .  S
Fe243       O248   2.049       .  S
Fe243       O254   1.984       .  S
Fe244       O247   2.050       .  S
Fe244       O251   2.053       .  S
Fe244       O255   2.051       .  S
Fe244       O260   2.054       .  S
Fe244       O254   1.961       .  S
Fe245       O263   2.093       .  S
Fe245       O250   2.068       .  S
Fe245       O257   2.059       .  S
Fe245       O246   2.085       .  S
Fe245       O254   1.987       .  S
O246        C253   1.276       .  A
O247        C261   1.270       .  A
O248        C253   1.270       .  A
O249        C252   1.268       .  A
O250        C262   1.265       .  A
O251        C264   1.266       .  A
C252        O257   1.266       .  A
C252       C2486   1.484   1_556  S
C253       C2117   1.481       .  S
O255        C258   1.268       .  A
O256        C258   1.272       .  A
C258       C2326   1.475       .  S
O259        C264   1.264       .  A
O260        C262   1.264       .  A
C261        O263   1.276       .  A
C261       C2186   1.474       .  S
C262       C2146   1.479       .  S
C264       C2437   1.465       .  S
Fe265       O281   2.081       .  S
Fe265       O271   2.080       .  S
Fe265       O278   2.092       .  S
Fe265       O270   2.073       .  S
Fe265       O276   1.987       .  S
Fe266       O269   2.039       .  S
Fe266       O273   2.047       .  S
Fe266       O277   2.033       .  S
Fe266       O282   2.049       .  S
Fe266       O276   1.959       .  S
Fe267       O285   2.086       .  S
Fe267       O272   2.064       .  S
Fe267       O279   2.055       .  S
Fe267       O268   2.073       .  S
Fe267       O276   1.979       .  S
O268        C275   1.275       .  A
O269        C283   1.268       .  A
O270        C275   1.274       .  A
O271        C274   1.270       .  A
O272        C284   1.264       .  A
O273        C286   1.266       .  A
C274        O279   1.265       .  A
C274       C1997   1.488       .  S
C275       C2097   1.478       .  S
O277        C280   1.263       .  A
O278        C280   1.272       .  A
C280       C2057   1.469       .  S
O281        C286   1.270       .  A
O282        C284   1.262       .  A
C283        O285   1.276       .  A
C283       C2086   1.477       .  S
C284       C2037   1.480       .  S
C286       C2026   1.479       .  S
Fe287       O303   2.086       .  S
Fe287       O293   2.066       .  S
Fe287       O300   2.072       .  S
Fe287       O292   2.072       .  S
Fe287       O298   1.985       .  S
Fe288       O291   2.048       .  S
Fe288       O295   2.043       .  S
Fe288       O299   2.047       .  S
Fe288       O304   2.048       .  S
Fe288       O298   1.959       .  S
Fe289       O307   2.072       .  S
Fe289       O294   2.085       .  S
Fe289       O301   2.076       .  S
Fe289       O290   2.062       .  S
Fe289       O298   1.987       .  S
O290        C297   1.268       .  A
O291        C305   1.263       .  A
O292        C297   1.270       .  A
O293        C296   1.272       .  A
O294        C306   1.273       .  A
O295        C308   1.267       .  A
C296        O301   1.273       .  A
C296       C2166   1.478       .  S
C297       C1917   1.486       .  S
O299        C302   1.265       .  A
O300        C302   1.268       .  A
C302       C1957   1.480       .  S
O303        C308   1.273       .  A
O304        C306   1.269       .  A
C305        O307   1.266       .  A
C305       C2066   1.478       .  S
C306       C1986   1.470       .  S
C308       C1937   1.475       .  S
Fe309       O325   2.082       .  S
Fe309       O315   2.068       .  S
Fe309       O322   2.083       .  S
Fe309       O314   2.079       .  S
Fe309       O320   1.986       .  S
Fe310       O313   2.051       .  S
Fe310       O317   2.051       .  S
Fe310       O321   2.047       .  S
Fe310       O326   2.053       .  S
Fe310       O320   1.961       .  S
Fe311       O329   2.067       .  S
Fe311       O316   2.078       .  S
Fe311       O323   2.068       .  S
Fe311       O312   2.060       .  S
Fe311       O320   1.991       .  S
O312        C319   1.268       .  A
O313        C327   1.264       .  A
O314        C319   1.272       .  A
O315        C318   1.272       .  A
O316        C328   1.272       .  A
O317        C330   1.269       .  A
C318        O323   1.270       .  A
C318       C2286   1.485       .  S
C319       C1846   1.488       .  S
O321        C324   1.264       .  A
O322        C324   1.269       .  A
C324       C1877   1.482       .  S
O325        C330   1.273       .  A
O326        C328   1.269       .  A
C327        O329   1.265       .  A
C327       C1897   1.479       .  S
C328       C1966   1.467       .  S
C330       C1857   1.475       .  S
Fe331       O347   2.081       .  S
Fe331       O337   2.071       .  S
Fe331       O344   2.077       .  S
Fe331       O336   2.080       .  S
Fe331       O342   1.961       .  S
Fe332       O335   2.067       .  S
Fe332       O339   2.059       .  S
Fe332       O343   2.050       .  S
Fe332       O348   2.052       .  S
Fe332       O342   1.940       .  S
Fe333       O351   2.080       .  S
Fe333       O338   2.079       .  S
Fe333       O345   2.068       .  S
Fe333       O334   2.078       .  S
Fe333       O342   1.963       .  S
O334        C341   1.275       .  A
O335        C349   1.274       .  A
O336        C341   1.276       .  A
O337        C340   1.270       .  A
O338        C350   1.268       .  A
O339        C352   1.270       .  A
C340        O345   1.268       .  A
C340       C1777   1.485       .  S
C341       C1817   1.489       .  S
O343        C346   1.267       .  A
O344        C346   1.271       .  A
C346       C1906   1.467       .  S
O347        C352   1.272       .  A
O348        C350   1.263       .  A
C349        O351   1.275       .  A
C349       C2017   1.479       .  S
C350       C1946   1.477       .  S
C352       C1806   1.486       .  S
Fe353       O369   2.094       .  S
Fe353       O359   2.044       .  S
Fe353       O366   2.065       .  S
Fe353       O358   2.078       .  S
Fe353       O364   1.977       .  S
Fe354       O357   2.062       .  S
Fe354       O361   2.039       .  S
Fe354       O365   2.061       .  S
Fe354       O370   2.047       .  S
Fe354       O364   1.953       .  S
Fe355       O373   2.056       .  S
Fe355       O360   2.110       .  S
Fe355       O367   2.102       .  S
Fe355       O356   2.045       .  S
Fe355       O364   1.973       .  S
O356        C363   1.264       .  A
O357        C371   1.265       .  A
O358        C363   1.271       .  A
O359        C362   1.269       .  A
O360        C372   1.279       .  A
O361        C374   1.268       .  A
C362        O367   1.277       .  A
C362       C2366   1.486       .  S
C363       C1746   1.473       .  S
O365        C368   1.267       .  A
O366        C368   1.266       .  A
C368       C1977   1.478       .  S
O369        C374   1.275       .  A
O370        C372   1.269       .  A
C371        O373   1.263       .  A
C371       C1757   1.475       .  S
C372       C1886   1.476       .  S
C374       C2046   1.470       .  S
Fe375       O391   2.066       .  S
Fe375       O381   2.063       .  S
Fe375       O388   2.074       .  S
Fe375       O380   2.069       .  S
Fe375       O386   1.976       .  S
Fe376       O379   2.059       .  S
Fe376       O383   2.059       .  S
Fe376       O387   2.047       .  S
Fe376       O392   2.056       .  S
Fe376       O386   1.951       .  S
Fe377       O395   2.085       .  S
Fe377       O382   2.074       .  S
Fe377       O389   2.062       .  S
Fe377       O378   2.071       .  S
Fe377       O386   1.969       .  S
O378        C385   1.275       .  A
O379        C393   1.270       .  A
O380        C385   1.274       .  A
O381        C384   1.266       .  A
O382        C394   1.268       .  A
O383        C396   1.270       .  A
C384        O389   1.266       .  A
C384       C1697   1.483       .  S
C385       C1726   1.474       .  S
O387        C390   1.264       .  A
O388        C390   1.267       .  A
C390       C1766   1.470       .  S
O391        C396   1.270       .  A
O392        C394   1.266       .  A
C393        O395   1.274       .  A
C393       C1797   1.487       .  S
C394       C1866   1.479       .  S
C396       C2077   1.464       .  S
Fe397       O413   2.080       .  S
Fe397       O403   2.068       .  S
Fe397       O410   2.073       .  S
Fe397       O402   2.073       .  S
Fe397       O408   1.974       .  S
Fe398       O401   2.049       .  S
Fe398       O405   2.050       .  S
Fe398       O409   2.055       .  S
Fe398       O414   2.055       .  S
Fe398       O408   1.953       .  S
Fe399       O417   2.077       .  S
Fe399       O404   2.091       .  S
Fe399       O411   2.089       .  S
Fe399       O400   2.070       .  S
Fe399       O408   1.977       .  S
O400        C407   1.269   1_554  A
O401        C415   1.264       .  A
O402        C407   1.270   1_554  A
O403        C406   1.273       .  A
O404        C416   1.275       .  A
O405        C418   1.267       .  A
C406        O411   1.275       .  A
C406       C1606   1.493       .  S
C407       C1837   1.489       .  S
O409        C412   1.267       .  A
O410        C412   1.269       .  A
C412       C1617   1.480       .  S
O413        C418   1.272       .  A
O414        C416   1.271       .  A
C415        O417   1.268       .  A
C415       C1666   1.478       .  S
C416       C1677   1.487       .  S
C418       C1637   1.470       .  S
Fe419       O435   2.077       .  S
Fe419       O425   2.062       .  S
Fe419       O432   2.073       .  S
Fe419       O424   2.073       .  S
Fe419       O430   1.954       .  S
Fe420       O423   2.068       .  S
Fe420       O427   2.056       .  S
Fe420       O431   2.054       .  S
Fe420       O436   2.048       .  S
Fe420       O430   1.933       .  S
Fe421       O439   2.069       .  S
Fe421       O426   2.093       .  S
Fe421       O433   2.075       .  S
Fe421       O422   2.066       .  S
Fe421       O430   1.956       .  S
O422        C429   1.274       .  A
O423        C437   1.272       .  A
O424        C429   1.275       .  A
O425        C428   1.268       .  A
O426        C438   1.270       .  A
O427        C440   1.270       .  A
C428        O433   1.270       .  A
C428       C1706   1.484       .  S
C429       C2937   1.480       .  S
O431        C434   1.267       .  A
O432        C434   1.270       .  A
C434       C1657   1.469       .  S
O435        C440   1.272       .  A
O436        C438   1.264       .  A
C437        O439   1.272       .  A
C437       C1586   1.472       .  S
C438       C1566   1.473       .  S
C440       C1537   1.474       .  S
Fe441       O457   2.077       .  S
Fe441       O447   2.084       .  S
Fe441       O454   2.102       .  S
Fe441       O446   2.068       .  S
Fe441       O452   1.978       .  S
Fe442       O445   2.052       .  S
Fe442       O449   2.069       .  S
Fe442       O453   2.039       .  S
Fe442       O458   2.053       .  S
Fe442       O452   1.954       .  S
Fe443       O461   2.086       .  S
Fe443       O448   2.060       .  S
Fe443       O455   2.041       .  S
Fe443       O444   2.075       .  S
Fe443       O452   1.975       .  S
O444        C451   1.276       .  A
O445        C459   1.274       .  A
O446        C451   1.276       .  A
O447        C450   1.269       .  A
O448        C460   1.261       .  A
O449        C462   1.268       .  A
C450        O455   1.262       .  A
C450       C1786   1.487       .  S
C451       C2497   1.477       .  S
O453        C456   1.266       .  A
O454        C456   1.275       .  A
C456       C1526   1.475       .  S
O457        C462   1.270       .  A
O458        C460   1.262       .  A
C459        O461   1.278       .  A
C459       C1546   1.482       .  S
C460       C1646   1.479       .  S
C462       C1506   1.477       .  S
Fe463       O479   2.072       .  S
Fe463       O469   2.058       .  S
Fe463       O476   2.060       .  S
Fe463       O468   2.062       .  S
Fe463       O474   1.982       .  S
Fe464       O467   2.065       .  S
Fe464       O471   2.058       .  S
Fe464       O475   2.064       .  S
Fe464       O480   2.056       .  S
Fe464       O474   1.967       .  S
Fe465       O483   2.061       .  S
Fe465       O470   2.087       .  S
Fe465       O477   2.087       .  S
Fe465       O466   2.064       .  S
Fe465       O474   1.989       .  S
O466        C473   1.267   1_554  A
O467        C481   1.267       .  A
O468        C473   1.267   1_554  A
O469        C472   1.271       .  A
O470        C482   1.274       .  A
O471        C484   1.269       .  A
C472        O477   1.274       .  A
C472       C1477   1.482       .  S
C473       C1926   1.484       .  S
O475        C478   1.268       .  A
O476        C478   1.266       .  A
C478       C1466   1.477       .  S
O479        C484   1.270       .  A
O480        C482   1.269       .  A
C481        O483   1.265       .  A
C481       C1517   1.481       .  S
C482       C1626   1.470       .  S
C484       C1446   1.470       .  S
Fe485       O501   2.083       .  S
Fe485       O491   2.072       .  S
Fe485       O498   2.094       .  S
Fe485       O490   2.073   1_554  S
Fe485       O496   1.975       .  S
Fe486       O489   2.064       .  S
Fe486       O493   2.054       .  S
Fe486       O497   2.050       .  S
Fe486       O502   2.053       .  S
Fe486       O496   1.952       .  S
Fe487       O505   2.065       .  S
Fe487       O492   2.072       .  S
Fe487       O499   2.060       .  S
Fe487       O488   2.061       .  S
Fe487       O496   1.970       .  S
O488        C495   1.271   1_554  A
O489        C503   1.271       .  A
O490        C495   1.273       .  A
O491        C494   1.270       .  A
O492        C504   1.267       .  A
O493        C506   1.267       .  A
C494        O499   1.267       .  A
C494       C1417   1.476       .  S
C495       C1737   1.478       .  S
O497        C500   1.267       .  A
O498        C500   1.272       .  A
C500       C1686   1.477       .  S
O501        C506   1.271       .  A
O502        C504   1.265       .  A
C503        O505   1.270       .  A
C503       C1397   1.480       .  S
C504       C1457   1.467       .  S
C506       C1557   1.472       .  S
Fe507       O523   2.062       .  S
Fe507       O513   2.072       .  S
Fe507       O520   2.086       .  S
Fe507       O512   2.052       .  S
Fe507       O518   1.983       .  S
Fe508       O511   2.048       .  S
Fe508       O515   2.055       .  S
Fe508       O519   2.042       .  S
Fe508       O524   2.053       .  S
Fe508       O518   1.958       .  S
Fe509       O527   2.103       .  S
Fe509       O514   2.063       .  S
Fe509       O521   2.060       .  S
Fe509       O510   2.094       .  S
Fe509       O518   1.985       .  S
O510        C517   1.275       .  A
O511        C525   1.268       .  A
O512        C517   1.270       .  A
O513        C516   1.270       .  A
O514        C526   1.265       .  A
O515        C528   1.267       .  A
C516        O521   1.268       .  A
C516       C2006   1.486       .  S
C517       C2626   1.490       .  S
O519        C522   1.265       .  A
O520        C522   1.271       .  A
C522       C1406   1.467       .  S
O523        C528   1.267       .  A
O524        C526   1.265       .  A
C525        O527   1.278       .  A
C525       C1497   1.482       .  S
C526       C1437   1.477       .  S
C528       C1577   1.475       .  S
Fe529       O545   2.074       .  S
Fe529       O535   2.081       .  S
Fe529       O542   2.082       .  S
Fe529       O534   2.058       .  S
Fe529       O540   1.950       .  S
Fe530       O533   2.052       .  S
Fe530       O537   2.057       .  S
Fe530       O541   2.061       .  S
Fe530       O546   2.067   1_655  S
Fe530       O540   1.939       .  S
Fe531       O549   2.086   1_655  S
Fe531       O536   2.067   1_655  S
Fe531       O543   2.071       .  S
Fe531       O532   2.074       .  S
Fe531       O540   1.955       .  S
O532        C539   1.272       .  A
O533        C547   1.269       .  A
O534        C539   1.271       .  A
O535        C538   1.274       .  A
O536        C548   1.268       .  A
O537        C550   1.270       .  A
C538        O543   1.271       .  A
C538       C2826   1.489       .  S
C539       C1297   1.480       .  S
O541        C544   1.270       .  A
O542        C544   1.272       .  A
C544       C1357   1.485       .  S
O545        C550   1.272       .  A
O546        C548   1.269       .  A
C547        O549   1.274   1_655  A
C547       C1337   1.481   1_655  S
C548       C1377   1.469       .  S
C550       C1317   1.472       .  S
Fe551       O567   2.082       .  S
Fe551       O557   2.067       .  S
Fe551       O564   2.077       .  S
Fe551       O556   2.082       .  S
Fe551       O562   1.968       .  S
Fe552       O555   2.067       .  S
Fe552       O559   2.048       .  S
Fe552       O563   2.046       .  S
Fe552       O568   2.049       .  S
Fe552       O562   1.941       .  S
Fe553       O571   2.083       .  S
Fe553       O558   2.078       .  S
Fe553       O565   2.064       .  S
Fe553       O554   2.072       .  S
Fe553       O562   1.962       .  S
O554        C561   1.276       .  A
O555        C569   1.272       .  A
O556        C561   1.277       .  A
O557        C560   1.267       .  A
O558        C570   1.266       .  A
O559        C572   1.270       .  A
C560        O565   1.266       .  A
C560       C1217   1.485       .  S
C561       C2106   1.477       .  S
O563        C566   1.264       .  A
O564        C566   1.268       .  A
C566       C1346   1.467       .  S
O567        C572   1.273       .  A
O568        C570   1.263       .  A
C569        O571   1.275       .  A
C569       C1277   1.488       .  S
C570       C1237   1.473       .  S
C572       C1266   1.471       .  S
Fe573       O589   2.080       .  S
Fe573       O579   2.066       .  S
Fe573       O586   2.074       .  S
Fe573       O578   2.075       .  S
Fe573       O584   1.969       .  S
Fe574       O577   2.072       .  S
Fe574       O581   2.052       .  S
Fe574       O585   2.058       .  S
Fe574       O590   2.051   1_545  S
Fe574       O584   1.946       .  S
Fe575       O593   2.062   1_545  S
Fe575       O580   2.068   1_545  S
Fe575       O587   2.056       .  S
Fe575       O576   2.059       .  S
Fe575       O584   1.964       .  S
O576        C583   1.270       .  A
O577        C591   1.270   1_545  A
O578        C583   1.274       .  A
O579        C582   1.269       .  A
O580        C592   1.269       .  A
O581        C594   1.271       .  A
C582        O587   1.267       .  A
C582       C2546   1.477       .  S
C583       C1166   1.481       .  S
O585        C588   1.266       .  A
O586        C588   1.268       .  A
C588       C1386   1.474       .  S
O589        C594   1.273       .  A
O590        C592   1.268       .  A
C591        O593   1.268       .  A
C591       C1186   1.484       .  S
C592       C1197   1.466       .  S
C594       C1246   1.471       .  S
Fe595       O611   2.087       .  S
Fe595       O601   2.075       .  S
Fe595       O608   2.081       .  S
Fe595       O600   2.077       .  S
Fe595       O606   1.986       .  S
Fe596       O599   2.052   1_565  S
Fe596       O603   2.056       .  S
Fe596       O607   2.040       .  S
Fe596       O612   2.049       .  S
Fe596       O606   1.959       .  S
Fe597       O615   2.070       .  S
Fe597       O602   2.073       .  S
Fe597       O609   2.060   1_545  S
Fe597       O598   2.059   1_545  S
Fe597       O606   1.981   1_545  S
O598        C605   1.270       .  A
O599        C613   1.269       .  A
O600        C605   1.274       .  A
O601        C604   1.270       .  A
O602        C614   1.266       .  A
O603        C616   1.268       .  A
C604        O609   1.267       .  A
C604       C1097   1.487       .  S
C605       C1717   1.475       .  S
O607        C610   1.264       .  A
O608        C610   1.269       .  A
C610       C1126   1.468       .  S
O611        C616   1.273       .  A
O612        C614   1.264   1_565  A
C613        O615   1.271       .  A
C613       C1257   1.478       .  S
C614       C1326   1.476       .  S
C616       C1137   1.480       .  S
Fe617       O633   2.082       .  S
Fe617       O623   2.057       .  S
Fe617       O630   2.064       .  S
Fe617       O622   2.066       .  S
Fe617       O628   1.984       .  S
Fe618       O621   2.052       .  S
Fe618       O625   2.041       .  S
Fe618       O629   2.052       .  S
Fe618       O634   2.047       .  S
Fe618       O628   1.962       .  S
Fe619       O637   2.062       .  S
Fe619       O624   2.090       .  S
Fe619       O631   2.082       .  S
Fe619       O620   2.053       .  S
Fe619       O628   1.985       .  S
O620        C627   1.265       .  A
O621        C635   1.263       .  A
O622        C627   1.266       .  A
O623        C626   1.273       .  A
O624        C636   1.275       .  A
O625        C638   1.265       .  A
C626        O631   1.275       .  A
C626       C2646   1.478       .  S
C627       C1066   1.483       .  S
O629        C632   1.267       .  A
O630        C632   1.267       .  A
C632       C1206   1.476       .  S
O633        C638   1.271       .  A
O634        C636   1.268       .  A
C635        O637   1.264       .  A
C635       C1117   1.478       .  S
C636       C1366   1.469       .  S
C638       C1077   1.470       .  S
Fe639       O655   2.075       .  S
Fe639       O645   2.071       .  S
Fe639       O652   2.084       .  S
Fe639       O644   2.063       .  S
Fe639       O650   1.985   1_455  S
Fe640       O643   2.047       .  S
Fe640       O647   2.051   1_655  S
Fe640       O651   2.046   1_655  S
Fe640       O656   2.049       .  S
Fe640       O650   1.962       .  S
Fe641       O659   2.094       .  S
Fe641       O646   2.062       .  S
Fe641       O653   2.048       .  S
Fe641       O642   2.083       .  S
Fe641       O650   1.993       .  S
O642        C649   1.273   1_655  A
O643        C657   1.266       .  A
O644        C649   1.271       .  A
O645        C648   1.271   1_455  A
O646        C658   1.265       .  A
O647        C660   1.265       .  A
C648        O653   1.266       .  A
C648       C1037   1.479       .  S
C649       C1826   1.490       .  S
O651        C654   1.267       .  A
O652        C654   1.272       .  A
C654       C1177   1.467       .  S
O655        C660   1.268       .  A
O656        C658   1.264       .  A
C657        O659   1.274       .  A
C657       C1146   1.472       .  S
C658       C1086   1.472       .  S
C660       C1286   1.480       .  S
Fe661       O677   2.083       .  S
Fe661       O667   2.078       .  S
Fe661       O674   2.082       .  S
Fe661       O666   2.074       .  S
Fe661       O672   1.975       .  S
Fe662       O665   2.065       .  S
Fe662       O669   2.061       .  S
Fe662       O673   2.048       .  S
Fe662       O678   2.050       .  S
Fe662       O672   1.951       .  S
Fe663       O681   2.068   1_655  S
Fe663       O668   2.071   1_655  S
Fe663       O675   2.047       .  S
Fe663       O664   2.061       .  S
Fe663       O672   1.971       .  S
O664        C671   1.270       .  A
O665        C679   1.270   1_655  A
O666        C671   1.273       .  A
O667        C670   1.272       .  A
O668        C680   1.266   1_455  A
O669        C682   1.270       .  A
C670        O675   1.266       .  A
C670       C1046   1.480       .  S
C671       C2126   1.482       .  S
O673        C676   1.266       .  A
O674        C676   1.271       .  A
C676        C966   1.470       .  S
O677        C682   1.271       .  A
O678        C680   1.264       .  A
C679        O681   1.270       .  A
C679       C1017   1.474       .  S
C680        C997   1.467   1_655  S
C682        C977   1.481       .  S
Fe683       O699   2.078       .  S
Fe683       O689   2.074       .  S
Fe683       O696   2.090       .  S
Fe683       O688   2.066       .  S
Fe683       O694   1.955       .  S
Fe684       O687   2.055       .  S
Fe684       O691   2.048       .  S
Fe684       O695   2.050       .  S
Fe684       O700   2.060   1_565  S
Fe684       O694   1.937       .  S
Fe685       O703   2.090       .  S
Fe685       O690   2.099       .  S
Fe685       O697   2.093   1_545  S
Fe685       O686   2.061   1_545  S
Fe685       O694   1.954   1_545  S
O686        C693   1.268       .  A
O687        C701   1.268   1_565  A
O688        C693   1.270       .  A
O689        C692   1.275       .  A
O690        C702   1.275       .  A
O691        C704   1.266       .  A
C692        O697   1.279       .  A
C692       C1597   1.494       .  S
C693       C1157   1.479       .  S
O695        C698   1.270       .  A
O696        C698   1.275       .  A
C698        C897   1.483       .  S
O699        C704   1.269       .  A
O700        C702   1.269       .  A
C701        O703   1.273       .  A
C701        C917   1.477       .  S
C702        C946   1.493       .  S
C704       C1006   1.466       .  S
Fe705       O721   2.084       .  S
Fe705       O711   2.061       .  S
Fe705       O718   2.082       .  S
Fe705       O710   2.069       .  S
Fe705       O716   1.962       .  S
Fe706       O709   2.052       .  S
Fe706       O713   2.051       .  S
Fe706       O717   2.060       .  S
Fe706       O722   2.057       .  S
Fe706       O716   1.939       .  S
Fe707       O725   2.069       .  S
Fe707       O712   2.088       .  S
Fe707       O719   2.086       .  S
Fe707       O708   2.063       .  S
Fe707       O716   1.963       .  S
O708        C715   1.268       .  A
O709        C723   1.266       .  A
O710        C715   1.269       .  A
O711        C714   1.273       .  A
O712        C724   1.274       .  A
O713        C726   1.266       .  A
C714        O719   1.276       .  A
C714       C1226   1.485       .  S
C715       C2457   1.471       .  S
O717        C720   1.269       .  A
O718        C720   1.272       .  A
C720        C926   1.475       .  S
O721        C726   1.271       .  A
O722        C724   1.270       .  A
C723        O725   1.268       .  A
C723        C886   1.465       .  S
C724        C866   1.479       .  S
C726       C1026   1.476       .  S
Fe727       O743   2.074       .  S
Fe727       O733   2.064       .  S
Fe727       O740   2.076       .  S
Fe727       O732   2.071       .  S
Fe727       O738   1.973       .  S
Fe728       O731   2.055   1_545  S
Fe728       O735   2.054       .  S
Fe728       O739   2.046       .  S
Fe728       O744   2.059       .  S
Fe728       O738   1.954       .  S
Fe729       O747   2.092       .  S
Fe729       O734   2.070       .  S
Fe729       O741   2.069       .  S
Fe729       O730   2.088   1_565  S
Fe729       O738   1.972   1_565  S
O730        C737   1.278       .  A
O731        C745   1.271       .  A
O732        C737   1.275       .  A
O733        C736   1.267       .  A
O734        C746   1.266       .  A
O735        C748   1.268       .  A
C736        O741   1.267   1_545  A
C736       C1106   1.485       .  S
C737       C2226   1.489       .  S
O739        C742   1.266       .  A
O740        C742   1.269       .  A
C742        C837   1.463       .  S
O743        C748   1.270       .  A
O744        C746   1.265   1_545  A
C745        O747   1.277       .  A
C745        C986   1.488       .  S
C746        C817   1.482       .  S
C748        C877   1.479       .  S
Fe749       O765   2.083       .  S
Fe749       O755   2.076       .  S
Fe749       O762   2.091       .  S
Fe749       O754   2.076       .  S
Fe749       O760   1.973   1_455  S
Fe750       O753   2.061       .  S
Fe750       O757   2.049   1_655  S
Fe750       O761   2.062   1_655  S
Fe750       O766   2.052       .  S
Fe750       O760   1.957       .  S
Fe751       O769   2.070       .  S
Fe751       O756   2.067       .  S
Fe751       O763   2.063       .  S
Fe751       O752   2.055       .  S
Fe751       O760   1.983       .  S
O752        C759   1.270       .  A
O753        C767   1.270       .  A
O754        C759   1.273   1_455  A
O755        C758   1.272       .  A
O756        C768   1.266       .  A
O757        C770   1.268       .  A
C758        O763   1.268   1_455  A
C758       C1486   1.486       .  S
C759       C1306   1.482       .  S
O761        C764   1.269       .  A
O762        C764   1.273       .  A
C764        C937   1.493       .  S
O765        C770   1.272       .  A
O766        C768   1.265       .  A
C767        O769   1.269       .  A
C767        C846   1.480       .  S
C768        C797   1.461       .  S
C770        C857   1.478       .  S
Fe771       O787   2.081       .  S
Fe771       O777   2.053       .  S
Fe771       O784   2.054       .  S
Fe771       O776   2.060       .  S
Fe771       O782   1.987       .  S
Fe772       O775   2.062       .  S
Fe772       O779   2.050       .  S
Fe772       O783   2.056       .  S
Fe772       O788   2.049       .  S
Fe772       O782   1.963       .  S
Fe773       O791   2.068       .  S
Fe773       O778   2.082       .  S
Fe773       O785   2.079       .  S
Fe773       O774   2.068       .  S
Fe773       O782   1.984       .  S
O774        C781   1.269       .  A
O775        C789   1.266       .  A
O776        C781   1.268       .  A
O777        C780   1.267       .  A
O778        C790   1.273       .  A
O779        C792   1.269       .  A
C780        O785   1.271       .  A
C780       C1426   1.471       .  S
C781       C1057   1.482       .  S
O783        C786   1.265       .  A
O784        C786   1.263       .  A
C786        C806   1.472       .  S
O787        C792   1.273       .  A
O788        C790   1.268       .  A
C789        O791   1.267       .  A
C789        C957   1.481       .  S
C790        C906   1.470       .  S
C792        C826   1.468       .  S
C793        C794   1.407       .  A
C793        C798   1.398       .  A
C793        H803   1.083       .  S
C794        C799   1.478   1_545  S
C794        C795   1.404       .  A
C795        C796   1.395       .  A
C795        H800   1.083       .  S
C796        C797   1.401       .  A
C796        H801   1.084       .  S
C797        C798   1.400       .  A
C798        H802   1.083       .  S
C799        C804   1.404       .  A
C799        C808   1.405       .  A
C804        C805   1.399       .  A
C804        H809   1.083       .  S
C805        C806   1.405       .  A
C805        H810   1.083       .  S
C806        C807   1.402       .  A
C807        C808   1.393       .  A
C807        H811   1.083       .  S
C808        H812   1.083       .  S
C813        C814   1.404       .  A
C813        C818   1.398       .  A
C813        H823   1.084       .  S
C814        C819   1.483   1_556  S
C814        C815   1.406       .  A
C815        C816   1.398       .  A
C815        H820   1.083   1_556  S
C816        C817   1.405       .  A
C816        H821   1.084       .  S
C817        C818   1.407       .  A
C818        H822   1.082       .  S
C819        C824   1.407       .  A
C819        C828   1.406       .  A
C824        C825   1.400       .  A
C824        H829   1.083       .  S
C825        C826   1.402       .  A
C825        H830   1.083       .  S
C826        C827   1.402       .  A
C827        C828   1.395       .  A
C827        H831   1.084       .  S
C828        H832   1.083   1_554  S
C833        C834   1.407       .  A
C833        C838   1.398       .  A
C833        H843   1.083       .  S
C834        C839   1.482       .  S
C834        C835   1.405       .  A
C835        C836   1.396       .  A
C835        H840   1.083       .  S
C836        C837   1.401       .  A
C836        H841   1.084       .  S
C837        C838   1.401       .  A
C838        H842   1.084       .  S
C839        C844   1.405       .  A
C839        C848   1.405   1_556  A
C844        C845   1.394   1_556  A
C844        H849   1.083       .  S
C845        C846   1.404       .  A
C845        H850   1.083       .  S
C846        C847   1.407       .  A
C847        C848   1.401       .  A
C847        H851   1.083       .  S
C848        H852   1.083       .  S
C853        C854   1.403       .  A
C853        C858   1.388       .  A
C853        H863   1.083       .  S
C854        C859   1.486   1_554  S
C854        C855   1.410       .  A
C855        C856   1.407       .  A
C855        H860   1.083       .  S
C856        C857   1.405       .  A
C856        H861   1.082       .  S
C857        C858   1.404       .  A
C858        H862   1.084       .  S
C859        C864   1.406       .  A
C859        C868   1.406       .  A
C864        C865   1.395       .  A
C864        H869   1.083   1_556  S
C865        C866   1.403       .  A
C865        H870   1.083       .  S
C866        C867   1.406       .  A
C867        C868   1.402       .  A
C867        H871   1.083       .  S
C868        H872   1.083       .  S
C873        C874   1.406       .  A
C873        C878   1.403       .  A
C873        H883   1.082       .  S
C874        C879   1.483   1_655  S
C874        C875   1.405       .  A
C875        C876   1.392       .  A
C875        H880   1.084       .  S
C876        C877   1.404       .  A
C876        H881   1.083       .  S
C877        C878   1.407       .  A
C878        H882   1.083       .  S
C879        C884   1.405       .  A
C879        C888   1.408       .  A
C884        C885   1.393       .  A
C884        H889   1.083       .  S
C885        C886   1.401       .  A
C885        H890   1.084       .  S
C886        C887   1.402       .  A
C887        C888   1.402       .  A
C887        H891   1.083       .  S
C888        H892   1.083       .  S
C893        C894   1.406       .  A
C893        C898   1.392   1_655  A
C893        H903   1.082       .  S
C894        C899   1.488       .  S
C894        C895   1.407       .  A
C895        C896   1.403   1_655  A
C895        H900   1.083       .  S
C896        C897   1.408       .  A
C896        H901   1.083       .  S
C897        C898   1.404       .  A
C898        H902   1.083       .  S
C899        C904   1.406       .  A
C899        C908   1.409       .  A
C904        C905   1.394       .  A
C904        H909   1.083       .  S
C905        C906   1.402       .  A
C905        H910   1.084       .  S
C906        C907   1.402       .  A
C907        C908   1.402       .  A
C907        H911   1.083       .  S
C908        H912   1.083       .  S
C913        C914   1.410       .  A
C913        C918   1.398   1_556  A
C913        H923   1.082       .  S
C914        C919   1.493       .  S
C914        C915   1.407   1_556  A
C915        C916   1.400       .  A
C915        H920   1.082       .  S
C916        C917   1.405       .  A
C916        H921   1.083       .  S
C917        C918   1.402       .  A
C918        H922   1.083   1_545  S
C919        C924   1.412       .  A
C919        C928   1.405       .  A
C924        C925   1.406       .  A
C924        H929   1.082       .  S
C925        C926   1.403       .  A
C925        H930   1.083       .  S
C926        C927   1.403       .  A
C927        C928   1.390       .  A
C927        H931   1.084       .  S
C928        H932   1.082       .  S
C933        C934   1.405       .  A
C933        C938   1.408       .  A
C933        H943   1.083       .  S
C934        C939   1.490       .  S
C934        C935   1.405       .  A
C935        C936   1.397       .  A
C935        H940   1.084       .  S
C936        C937   1.407       .  A
C936        H941   1.083       .  S
C937        C938   1.411       .  A
C938        H942   1.083       .  S
C939        C944   1.401       .  A
C939        C948   1.409       .  A
C944        C945   1.391       .  A
C944        H949   1.084       .  S
C945        C946   1.408       .  A
C945        H950   1.083       .  S
C946        C947   1.410       .  A
C947        C948   1.413       .  A
C947        H951   1.083       .  S
C948        H952   1.083       .  S
C953        C954   1.405   1_554  A
C953        C958   1.401       .  A
C953        H963   1.083       .  S
C954        C959   1.483       .  S
C954        C955   1.405       .  A
C955        C956   1.398   1_556  A
C955        H960   1.083       .  S
C956        C957   1.404       .  A
C956        H961   1.083       .  S
C957        C958   1.406       .  A
C958        H962   1.083       .  S
C959        C964   1.404       .  A
C959        C968   1.407       .  A
C964        C965   1.396       .  A
C964        H969   1.083       .  S
C965        C966   1.404       .  A
C965        H970   1.084       .  S
C966        C967   1.402       .  A
C967        C968   1.402       .  A
C967        H971   1.083       .  S
C968        H972   1.083       .  S
C973        C974   1.407       .  A
C973        C978   1.404       .  A
C973        H983   1.083       .  S
C974        C979   1.492       .  S
C974        C975   1.408       .  A
C975        C976   1.396       .  A
C975        H980   1.083       .  S
C976        C977   1.402       .  A
C976        H981   1.084       .  S
C977        C978   1.407       .  A
C978        H982   1.083       .  S
C979        C984   1.410       .  A
C979        C988   1.403       .  A
C984        C985   1.409       .  A
C984        H989   1.082       .  S
C985        C986   1.407       .  A
C985        H990   1.083       .  S
C986        C987   1.407       .  A
C987        C988   1.390       .  A
C987        H991   1.083       .  S
C988        H992   1.083       .  S
C993        C994   1.409       .  A
C993        C998   1.394   1_455  A
C993       H1003   1.082   1_456  S
C994        C999   1.490   1_556  S
C994        C995   1.409       .  A
C995        C996   1.399       .  A
C995       H1000   1.082       .  S
C996        C997   1.402       .  A
C996       H1001   1.083       .  S
C997        C998   1.400   1_455  A
C998       H1002   1.084       .  S
C999       C1004   1.407       .  A
C999       C1008   1.412       .  A
C1004      C1005   1.388       .  A
C1004      H1009   1.082       .  S
C1005      C1006   1.399       .  A
C1005      H1010   1.084       .  S
C1006      C1007   1.402       .  A
C1007      C1008   1.405       .  A
C1007      H1011   1.083       .  S
C1008      H1012   1.082       .  S
C1013      C1014   1.401       .  A
C1013      C1018   1.392       .  A
C1013      H1023   1.084       .  S
C1014      C1019   1.469       .  S
C1014      C1015   1.402       .  A
C1015      C1016   1.403       .  A
C1015      H1020   1.083       .  S
C1016      C1017   1.407       .  A
C1016      H1021   1.083       .  S
C1017      C1018   1.404       .  A
C1018      H1022   1.084       .  S
C1019      C1024   1.402   1_565  A
C1019      C1028   1.401   1_565  A
C1024      C1025   1.397       .  A
C1024      H1029   1.083   1_545  S
C1025      C1026   1.405       .  A
C1025      H1030   1.083       .  S
C1026      C1027   1.407       .  A
C1027      C1028   1.398       .  A
C1027      H1031   1.083       .  S
C1028      H1032   1.083       .  S
C1033      C1034   1.406   1_455  A
C1033      C1038   1.397       .  A
C1033      H1043   1.083       .  S
C1034      C1039   1.478       .  S
C1034      C1035   1.401       .  A
C1035      C1036   1.395       .  A
C1035      H1040   1.083       .  S
C1036      C1037   1.408       .  A
C1036      H1041   1.083       .  S
C1037      C1038   1.404   1_655  A
C1038      H1042   1.083       .  S
C1039      C1044   1.400       .  A
C1039      C1048   1.407       .  A
C1044      C1045   1.391       .  A
C1044      H1049   1.083   1_655  S
C1045      C1046   1.409       .  A
C1045      H1050   1.083   1_655  S
C1046      C1047   1.404       .  A
C1047      C1048   1.400       .  A
C1047      H1051   1.083       .  S
C1048      H1052   1.083       .  S
C1053      C1054   1.407       .  A
C1053      C1058   1.397       .  A
C1053      H1063   1.083       .  S
C1054      C1059   1.487       .  S
C1054      C1055   1.405       .  A
C1055      C1056   1.398       .  A
C1055      H1060   1.083       .  S
C1056      C1057   1.406       .  A
C1056      H1061   1.083       .  S
C1057      C1058   1.406       .  A
C1058      H1062   1.083       .  S
C1059      C1064   1.407       .  A
C1059      C1068   1.405       .  A
C1064      C1065   1.400       .  A
C1064      H1069   1.083       .  S
C1065      C1066   1.406       .  A
C1065      H1070   1.083       .  S
C1066      C1067   1.407       .  A
C1067      C1068   1.395       .  A
C1067      H1071   1.083       .  S
C1068      H1072   1.083       .  S
C1073      C1074   1.404       .  A
C1073      C1078   1.394       .  A
C1073      H1083   1.083       .  S
C1074      C1079   1.477       .  S
C1074      C1075   1.405       .  A
C1075      C1076   1.400       .  A
C1075      H1080   1.083       .  S
C1076      C1077   1.404       .  A
C1076      H1081   1.083       .  S
C1077      C1078   1.403       .  A
C1078      H1082   1.084       .  S
C1079      C1084   1.404       .  A
C1079      C1088   1.405       .  A
C1084      C1085   1.395       .  A
C1084      H1089   1.083       .  S
C1085      C1086   1.404       .  A
C1085      H1090   1.084       .  S
C1086      C1087   1.404       .  A
C1087      C1088   1.398       .  A
C1087      H1091   1.083       .  S
C1088      H1092   1.083       .  S
C1093      C1094   1.405   1_545  A
C1093      C1098   1.398       .  A
C1093      H1103   1.083       .  S
C1094      C1099   1.490       .  S
C1094      C1095   1.408       .  A
C1095      C1096   1.401       .  A
C1095      H1100   1.082       .  S
C1096      C1097   1.405       .  A
C1096      H1101   1.083       .  S
C1097      C1098   1.408   1_565  A
C1098      H1102   1.083       .  S
C1099      C1104   1.407   1_565  A
C1099      C1108   1.406       .  A
C1104      C1105   1.399       .  A
C1104      H1109   1.083       .  S
C1105      C1106   1.405       .  A
C1105      H1110   1.083       .  S
C1106      C1107   1.407   1_545  A
C1107      C1108   1.399       .  A
C1107      H1111   1.083       .  S
C1108      H1112   1.083       .  S
C1113      C1114   1.405       .  A
C1113      C1118   1.400       .  A
C1113      H1123   1.083       .  S
C1114      C1119   1.480       .  S
C1114      C1115   1.404       .  A
C1115      C1116   1.395       .  A
C1115      H1120   1.083       .  S
C1116      C1117   1.404       .  A
C1116      H1121   1.083       .  S
C1117      C1118   1.406       .  A
C1118      H1122   1.083       .  S
C1119      C1124   1.404       .  A
C1119      C1128   1.407       .  A
C1124      C1125   1.394       .  A
C1124      H1129   1.083       .  S
C1125      C1126   1.403       .  A
C1125      H1130   1.084       .  S
C1126      C1127   1.402       .  A
C1127      C1128   1.401       .  A
C1127      H1131   1.083       .  S
C1128      H1132   1.084       .  S
C1133      C1134   1.408       .  A
C1133      C1138   1.405       .  A
C1133      H1143   1.083       .  S
C1134      C1139   1.492       .  S
C1134      C1135   1.407       .  A
C1135      C1136   1.396       .  A
C1135      H1140   1.083       .  S
C1136      C1137   1.403       .  A
C1136      H1141   1.084       .  S
C1137      C1138   1.406       .  A
C1138      H1142   1.083       .  S
C1139      C1144   1.406       .  A
C1139      C1148   1.410       .  A
C1144      C1145   1.396       .  A
C1144      H1149   1.083       .  S
C1145      C1146   1.402       .  A
C1145      H1150   1.084       .  S
C1146      C1147   1.402       .  A
C1147      C1148   1.404       .  A
C1147      H1151   1.083       .  S
C1148      H1152   1.083       .  S
C1153      C1154   1.401       .  A
C1153      C1158   1.394       .  A
C1153      H1163   1.083       .  S
C1154      C1159   1.480       .  S
C1154      C1155   1.407   1_545  A
C1155      C1156   1.399       .  A
C1155      H1160   1.083       .  S
C1156      C1157   1.405       .  A
C1156      H1161   1.083       .  S
C1157      C1158   1.408   1_565  A
C1158      H1162   1.083       .  S
C1159      C1164   1.401   1_545  A
C1159      C1168   1.407       .  A
C1164      C1165   1.392       .  A
C1164      H1169   1.083       .  S
C1165      C1166   1.409   1_565  A
C1165      H1170   1.083       .  S
C1166      C1167   1.405       .  A
C1167      C1168   1.400       .  A
C1167      H1171   1.083       .  S
C1168      H1172   1.083       .  S
C1173      C1174   1.405       .  A
C1173      C1178   1.396       .  A
C1173      H1183   1.083       .  S
C1174      C1179   1.482       .  S
C1174      C1175   1.406       .  A
C1175      C1176   1.400       .  A
C1175      H1180   1.083       .  S
C1176      C1177   1.402       .  A
C1176      H1181   1.083       .  S
C1177      C1178   1.402       .  A
C1178      H1182   1.084       .  S
C1179      C1184   1.403       .  A
C1179      C1188   1.405       .  A
C1184      C1185   1.398       .  A
C1184      H1189   1.083       .  S
C1185      C1186   1.409       .  A
C1185      H1190   1.083       .  S
C1186      C1187   1.405       .  A
C1187      C1188   1.399       .  A
C1187      H1191   1.083   1_565  S
C1188      H1192   1.083       .  S
C1193      C1194   1.406       .  A
C1193      C1198   1.401       .  A
C1193      H1203   1.083       .  S
C1194      C1199   1.478   1_455  S
C1194      C1195   1.404       .  A
C1195      C1196   1.391       .  A
C1195      H1200   1.084   1_455  S
C1196      C1197   1.402       .  A
C1196      H1201   1.084       .  S
C1197      C1198   1.402       .  A
C1198      H1202   1.083       .  S
C1199      C1204   1.405       .  A
C1199      C1208   1.403       .  A
C1204      C1205   1.403       .  A
C1204      H1209   1.083       .  S
C1205      C1206   1.407       .  A
C1205      H1210   1.083       .  S
C1206      C1207   1.404       .  A
C1207      C1208   1.388       .  A
C1207      H1211   1.083       .  S
C1208      H1212   1.084       .  S
C1213      C1214   1.405       .  A
C1213      C1218   1.398       .  A
C1213      H1223   1.082       .  S
C1214      C1219   1.490       .  S
C1214      C1215   1.408       .  A
C1215      C1216   1.400       .  A
C1215      H1220   1.083       .  S
C1216      C1217   1.405       .  A
C1216      H1221   1.083       .  S
C1217      C1218   1.407       .  A
C1218      H1222   1.083       .  S
C1219      C1224   1.407       .  A
C1219      C1228   1.406       .  A
C1224      C1225   1.399       .  A
C1224      H1229   1.083       .  S
C1225      C1226   1.406       .  A
C1225      H1230   1.083       .  S
C1226      C1227   1.406       .  A
C1227      C1228   1.399       .  A
C1227      H1231   1.083       .  S
C1228      H1232   1.082       .  S
C1233      C1234   1.407       .  A
C1233      C1238   1.394       .  A
C1233      H1243   1.083       .  S
C1234      C1239   1.484       .  S
C1234      C1235   1.406       .  A
C1235      C1236   1.400       .  A
C1235      H1240   1.083       .  S
C1236      C1237   1.405       .  A
C1236      H1241   1.083       .  S
C1237      C1238   1.402       .  A
C1238      H1242   1.084       .  S
C1239      C1244   1.403       .  A
C1239      C1248   1.411       .  A
C1244      C1245   1.385       .  A
C1244      H1249   1.083       .  S
C1245      C1246   1.401       .  A
C1245      H1250   1.084       .  S
C1246      C1247   1.404       .  A
C1247      C1248   1.407       .  A
C1247      H1251   1.083       .  S
C1248      H1252   1.083       .  S
C1253      C1254   1.403       .  A
C1253      C1258   1.388       .  A
C1253      H1263   1.082       .  S
C1254      C1259   1.478       .  S
C1254      C1255   1.404       .  A
C1255      C1256   1.403       .  A
C1255      H1260   1.084       .  S
C1256      C1257   1.408       .  A
C1256      H1261   1.081       .  S
C1257      C1258   1.404       .  A
C1258      H1262   1.085       .  S
C1259      C1264   1.403       .  A
C1259      C1268   1.405       .  A
C1264      C1265   1.390   1_655  A
C1264      H1269   1.084       .  S
C1265      C1266   1.403       .  A
C1265      H1270   1.083       .  S
C1266      C1267   1.405       .  A
C1267      C1268   1.402   1_455  A
C1267      H1271   1.083       .  S
C1268      H1272   1.083       .  S
C1273      C1274   1.403       .  A
C1273      C1278   1.391       .  A
C1273      H1283   1.083       .  S
C1274      C1279   1.487       .  S
C1274      C1275   1.408       .  A
C1275      C1276   1.408       .  A
C1275      H1280   1.083       .  S
C1276      C1277   1.408       .  A
C1276      H1281   1.082       .  S
C1277      C1278   1.407       .  A
C1278      H1282   1.083       .  S
C1279      C1284   1.406   1_545  A
C1279      C1288   1.406   1_545  A
C1284      C1285   1.394       .  A
C1284      H1289   1.084       .  S
C1285      C1286   1.404       .  A
C1285      H1290   1.083       .  S
C1286      C1287   1.407       .  A
C1287      C1288   1.404       .  A
C1287      H1291   1.083       .  S
C1288      H1292   1.082   1_565  S
C1293      C1294   1.402       .  A
C1293      C1298   1.397       .  A
C1293      H1303   1.083   1_655  S
C1294      C1299   1.478       .  S
C1294      C1295   1.405       .  A
C1295      C1296   1.395       .  A
C1295      H1300   1.083       .  S
C1296      C1297   1.405       .  A
C1296      H1301   1.083       .  S
C1297      C1298   1.408       .  A
C1298      H1302   1.083   1_655  S
C1299      C1304   1.401       .  A
C1299      C1308   1.406   1_655  A
C1304      C1305   1.392       .  A
C1304      H1309   1.083       .  S
C1305      C1306   1.408       .  A
C1305      H1310   1.083       .  S
C1306      C1307   1.407   1_655  A
C1307      C1308   1.401       .  A
C1307      H1311   1.083       .  S
C1308      H1312   1.083       .  S
C1313      C1314   1.403       .  A
C1313      C1318   1.386       .  A
C1313      H1323   1.083       .  S
C1314      C1319   1.482       .  S
C1314      C1315   1.409       .  A
C1315      C1316   1.406       .  A
C1315      H1320   1.083       .  S
C1316      C1317   1.404       .  A
C1316      H1321   1.083       .  S
C1317      C1318   1.402       .  A
C1318      H1322   1.084       .  S
C1319      C1324   1.406       .  A
C1319      C1328   1.405       .  A
C1324      C1325   1.394       .  A
C1324      H1329   1.083       .  S
C1325      C1326   1.403       .  A
C1325      H1330   1.083   1_545  S
C1326      C1327   1.405       .  A
C1327      C1328   1.400       .  A
C1327      H1331   1.083       .  S
C1328      H1332   1.083       .  S
C1333      C1334   1.405       .  A
C1333      C1338   1.400       .  A
C1333      H1343   1.083       .  S
C1334      C1339   1.484       .  S
C1334      C1335   1.405       .  A
C1335      C1336   1.395       .  A
C1335      H1340   1.083       .  S
C1336      C1337   1.405       .  A
C1336      H1341   1.083   1_455  S
C1337      C1338   1.407       .  A
C1338      H1342   1.083       .  S
C1339      C1344   1.406       .  A
C1339      C1348   1.407       .  A
C1344      C1345   1.396       .  A
C1344      H1349   1.083       .  S
C1345      C1346   1.402       .  A
C1345      H1350   1.084       .  S
C1346      C1347   1.402       .  A
C1347      C1348   1.400       .  A
C1347      H1351   1.083       .  S
C1348      H1352   1.083       .  S
C1353      C1354   1.408   1_545  A
C1353      C1358   1.397       .  A
C1353      H1363   1.082       .  S
C1354      C1359   1.489       .  S
C1354      C1355   1.405   1_565  A
C1355      C1356   1.400       .  A
C1355      H1360   1.083       .  S
C1356      C1357   1.409       .  A
C1356      H1361   1.082       .  S
C1357      C1358   1.405       .  A
C1358      H1362   1.083       .  S
C1359      C1364   1.405       .  A
C1359      C1368   1.411       .  A
C1364      C1365   1.394       .  A
C1364      H1369   1.083       .  S
C1365      C1366   1.403       .  A
C1365      H1370   1.084       .  S
C1366      C1367   1.401       .  A
C1367      C1368   1.404       .  A
C1367      H1371   1.083       .  S
C1368      H1372   1.082       .  S
C1373      C1374   1.404       .  A
C1373      C1378   1.401       .  A
C1373      H1383   1.083       .  S
C1374      C1379   1.472       .  S
C1374      C1375   1.402       .  A
C1375      C1376   1.393       .  A
C1375      H1380   1.084       .  S
C1376      C1377   1.403       .  A
C1376      H1381   1.084       .  S
C1377      C1378   1.404       .  A
C1378      H1382   1.083       .  S
C1379      C1384   1.403       .  A
C1379      C1388   1.402       .  A
C1384      C1385   1.397       .  A
C1384      H1389   1.083       .  S
C1385      C1386   1.403       .  A
C1385      H1390   1.083       .  S
C1386      C1387   1.407       .  A
C1387      C1388   1.398       .  A
C1387      H1391   1.083       .  S
C1388      H1392   1.083       .  S
C1393      C1394   1.404       .  A
C1393      C1398   1.397       .  A
C1393      H1403   1.083       .  S
C1394      C1399   1.480       .  S
C1394      C1395   1.405       .  A
C1395      C1396   1.397       .  A
C1395      H1400   1.083       .  S
C1396      C1397   1.405       .  A
C1396      H1401   1.083       .  S
C1397      C1398   1.407       .  A
C1398      H1402   1.083       .  S
C1399      C1404   1.405       .  A
C1399      C1408   1.407       .  A
C1404      C1405   1.393       .  A
C1404      H1409   1.083       .  S
C1405      C1406   1.401       .  A
C1405      H1410   1.084       .  S
C1406      C1407   1.403       .  A
C1407      C1408   1.401       .  A
C1407      H1411   1.083       .  S
C1408      H1412   1.083       .  S
C1413      C1414   1.404       .  A
C1413      C1418   1.397       .  A
C1413      H1423   1.083       .  S
C1414      C1419   1.480       .  S
C1414      C1415   1.404       .  A
C1415      C1416   1.399       .  A
C1415      H1420   1.083       .  S
C1416      C1417   1.405       .  A
C1416      H1421   1.083       .  S
C1417      C1418   1.404       .  A
C1418      H1422   1.083       .  S
C1419      C1424   1.406       .  A
C1419      C1428   1.404       .  A
C1424      C1425   1.400       .  A
C1424      H1429   1.083       .  S
C1425      C1426   1.403       .  A
C1425      H1430   1.083       .  S
C1426      C1427   1.404       .  A
C1427      C1428   1.396       .  A
C1427      H1431   1.083       .  S
C1428      H1432   1.083       .  S
C1433      C1434   1.403       .  A
C1433      C1438   1.394       .  A
C1433      H1443   1.084       .  S
C1434      C1439   1.476       .  S
C1434      C1435   1.404       .  A
C1435      C1436   1.400       .  A
C1435      H1440   1.083       .  S
C1436      C1437   1.406       .  A
C1436      H1441   1.083       .  S
C1437      C1438   1.405       .  A
C1438      H1442   1.083       .  S
C1439      C1444   1.404       .  A
C1439      C1448   1.404       .  A
C1444      C1445   1.396       .  A
C1444      H1449   1.083       .  S
C1445      C1446   1.402       .  A
C1445      H1450   1.083       .  S
C1446      C1447   1.404       .  A
C1447      C1448   1.398       .  A
C1447      H1451   1.083       .  S
C1448      H1452   1.083       .  S
C1453      C1454   1.405       .  A
C1453      C1458   1.395       .  A
C1453      H1463   1.083       .  S
C1454      C1459   1.484       .  S
C1454      C1455   1.408       .  A
C1455      C1456   1.402       .  A
C1455      H1460   1.083       .  S
C1456      C1457   1.402       .  A
C1456      H1461   1.083       .  S
C1457      C1458   1.401       .  A
C1458      H1462   1.084       .  S
C1459      C1464   1.406       .  A
C1459      C1468   1.406       .  A
C1464      C1465   1.394       .  A
C1464      H1469   1.083       .  S
C1465      C1466   1.403       .  A
C1465      H1470   1.083       .  S
C1466      C1467   1.406       .  A
C1467      C1468   1.401       .  A
C1467      H1471   1.084       .  S
C1468      H1472   1.083       .  S
C1473      C1474   1.403       .  A
C1473      C1478   1.392       .  A
C1473      H1483   1.083       .  S
C1474      C1479   1.487       .  S
C1474      C1475   1.408       .  A
C1475      C1476   1.408       .  A
C1475      H1480   1.083       .  S
C1476      C1477   1.408       .  A
C1476      H1481   1.083       .  S
C1477      C1478   1.404       .  A
C1478      H1482   1.083       .  S
C1479      C1484   1.406       .  A
C1479      C1488   1.405       .  A
C1484      C1485   1.407       .  A
C1484      H1489   1.083   1_455  S
C1485      C1486   1.411       .  A
C1485      H1490   1.083   1_455  S
C1486      C1487   1.403       .  A
C1487      C1488   1.393       .  A
C1487      H1491   1.083       .  S
C1488      H1492   1.083       .  S
C1493      C1494   1.407       .  A
C1493      C1498   1.405       .  A
C1493      H1503   1.083       .  S
C1494      C1499   1.483       .  S
C1494      C1495   1.402       .  A
C1495      C1496   1.397       .  A
C1495      H1500   1.084       .  S
C1496      C1497   1.407       .  A
C1496      H1501   1.083       .  S
C1497      C1498   1.405       .  A
C1498      H1502   1.083       .  S
C1499      C1504   1.403       .  A
C1499      C1508   1.408       .  A
C1504      C1505   1.397       .  A
C1504      H1509   1.083       .  S
C1505      C1506   1.405       .  A
C1505      H1510   1.084       .  S
C1506      C1507   1.404       .  A
C1507      C1508   1.405       .  A
C1507      H1511   1.083       .  S
C1508      H1512   1.083       .  S
C1513      C1514   1.406       .  A
C1513      C1518   1.397       .  A
C1513      H1523   1.083       .  S
C1514      C1519   1.484       .  S
C1514      C1515   1.405       .  A
C1515      C1516   1.400       .  A
C1515      H1520   1.083       .  S
C1516      C1517   1.407       .  A
C1516      H1521   1.083       .  S
C1517      C1518   1.404       .  A
C1518      H1522   1.083       .  S
C1519      C1524   1.407       .  A
C1519      C1528   1.405       .  A
C1524      C1525   1.401       .  A
C1524      H1529   1.083       .  S
C1525      C1526   1.404       .  A
C1525      H1530   1.083       .  S
C1526      C1527   1.404       .  A
C1527      C1528   1.395       .  A
C1527      H1531   1.084       .  S
C1528      H1532   1.083       .  S
C1533      C1534   1.407       .  A
C1533      C1538   1.399       .  A
C1533      H1543   1.082       .  S
C1534      C1539   1.487       .  S
C1534      C1535   1.407       .  A
C1535      C1536   1.395       .  A
C1535      H1540   1.083       .  S
C1536      C1537   1.402       .  A
C1536      H1541   1.083       .  S
C1537      C1538   1.405       .  A
C1538      H1542   1.083       .  S
C1539      C1544   1.408       .  A
C1539      C1548   1.404       .  A
C1544      C1545   1.403       .  A
C1544      H1549   1.083       .  S
C1545      C1546   1.407       .  A
C1545      H1550   1.083       .  S
C1546      C1547   1.405       .  A
C1547      C1548   1.390       .  A
C1547      H1551   1.083       .  S
C1548      H1552   1.082       .  S
C1553      C1554   1.411       .  A
C1553      C1558   1.407       .  A
C1553      H1563   1.083       .  S
C1554      C1559   1.489       .  S
C1554      C1555   1.405       .  A
C1555      C1556   1.390       .  A
C1555      H1560   1.083       .  S
C1556      C1557   1.401       .  A
C1556      H1561   1.084       .  S
C1557      C1558   1.404       .  A
C1558      H1562   1.083       .  S
C1559      C1564   1.408       .  A
C1559      C1568   1.408       .  A
C1564      C1565   1.402       .  A
C1564      H1569   1.083       .  S
C1565      C1566   1.404       .  A
C1565      H1570   1.083       .  S
C1566      C1567   1.401       .  A
C1567      C1568   1.395       .  A
C1567      H1571   1.084       .  S
C1568      H1572   1.083       .  S
C1573      C1574   1.401       .  A
C1573      C1578   1.391       .  A
C1573      H1583   1.084       .  S
C1574      C1579   1.469       .  S
C1574      C1575   1.402       .  A
C1575      C1576   1.402       .  A
C1575      H1580   1.083       .  S
C1576      C1577   1.407       .  A
C1576      H1581   1.083       .  S
C1577      C1578   1.404       .  A
C1578      H1582   1.083       .  S
C1579      C1584   1.400       .  A
C1579      C1588   1.403       .  A
C1584      C1585   1.389       .  A
C1584      H1589   1.084       .  S
C1585      C1586   1.403       .  A
C1585      H1590   1.084       .  S
C1586      C1587   1.407       .  A
C1587      C1588   1.404       .  A
C1587      H1591   1.083       .  S
C1588      H1592   1.083       .  S
C1593      C1594   1.406       .  A
C1593      C1598   1.409       .  A
C1593      H1603   1.083       .  S
C1594      C1599   1.485       .  S
C1594      C1595   1.402       .  A
C1595      C1596   1.395       .  A
C1595      H1600   1.084       .  S
C1596      C1597   1.410       .  A
C1596      H1601   1.083       .  S
C1597      C1598   1.409       .  A
C1598      H1602   1.083       .  S
C1599      C1604   1.401       .  A
C1599      C1608   1.406       .  A
C1604      C1605   1.393       .  A
C1604      H1609   1.084       .  S
C1605      C1606   1.408       .  A
C1605      H1610   1.083       .  S
C1606      C1607   1.411       .  A
C1607      C1608   1.410       .  A
C1607      H1611   1.083       .  S
C1608      H1612   1.083       .  S
C1613      C1614   1.407       .  A
C1613      C1618   1.395       .  A
C1613      H1623   1.083       .  S
C1614      C1619   1.488       .  S
C1614      C1615   1.406       .  A
C1615      C1616   1.402       .  A
C1615      H1620   1.083       .  S
C1616      C1617   1.407       .  A
C1616      H1621   1.083       .  S
C1617      C1618   1.404       .  A
C1618      H1622   1.084       .  S
C1619      C1624   1.406       .  A
C1619      C1628   1.409       .  A
C1624      C1625   1.395       .  A
C1624      H1629   1.082       .  S
C1625      C1626   1.401       .  A
C1625      H1630   1.084       .  S
C1626      C1627   1.402       .  A
C1627      C1628   1.403       .  A
C1627      H1631   1.083       .  S
C1628      H1632   1.083       .  S
C1633      C1634   1.408       .  A
C1633      C1638   1.401       .  A
C1633      H1643   1.083       .  S
C1634      C1639   1.484       .  S
C1634      C1635   1.405       .  A
C1635      C1636   1.395       .  A
C1635      H1640   1.083       .  S
C1636      C1637   1.403       .  A
C1636      H1641   1.084       .  S
C1637      C1638   1.402       .  A
C1638      H1642   1.083       .  S
C1639      C1644   1.407       .  A
C1639      C1648   1.405       .  A
C1644      C1645   1.401       .  A
C1644      H1649   1.083       .  S
C1645      C1646   1.406       .  A
C1645      H1650   1.083       .  S
C1646      C1647   1.404       .  A
C1647      C1648   1.395       .  A
C1647      H1651   1.083       .  S
C1648      H1652   1.083       .  S
C1653      C1654   1.408       .  A
C1653      C1658   1.402       .  A
C1653      H1663   1.084       .  S
C1654      C1659   1.483       .  S
C1654      C1655   1.405       .  A
C1655      C1656   1.393       .  A
C1655      H1660   1.083       .  S
C1656      C1657   1.402       .  A
C1656      H1661   1.084       .  S
C1657      C1658   1.403       .  A
C1658      H1662   1.083       .  S
C1659      C1664   1.405       .  A
C1659      C1668   1.406       .  A
C1664      C1665   1.397       .  A
C1664      H1669   1.083       .  S
C1665      C1666   1.405       .  A
C1665      H1670   1.084       .  S
C1666      C1667   1.405       .  A
C1667      C1668   1.399       .  A
C1667      H1671   1.083       .  S
C1668      H1672   1.083       .  S
C1673      C1674   1.403       .  A
C1673      C1678   1.389       .  A
C1673      H1683   1.083       .  S
C1674      C1679   1.489       .  S
C1674      C1675   1.410       .  A
C1675      C1676   1.410       .  A
C1675      H1680   1.083       .  S
C1676      C1677   1.408       .  A
C1676      H1681   1.083       .  S
C1677      C1678   1.406       .  A
C1678      H1682   1.083       .  S
C1679      C1684   1.406       .  A
C1679      C1688   1.407       .  A
C1684      C1685   1.404       .  A
C1684      H1689   1.083       .  S
C1685      C1686   1.406       .  A
C1685      H1690   1.083       .  S
C1686      C1687   1.402       .  A
C1687      C1688   1.395       .  A
C1687      H1691   1.084       .  S
C1688      H1692   1.083       .  S
C1693      C1694   1.407       .  A
C1693      C1698   1.399       .  A
C1693      H1703   1.083       .  S
C1694      C1699   1.488       .  S
C1694      C1695   1.405       .  A
C1695      C1696   1.397       .  A
C1695      H1700   1.083       .  S
C1696      C1697   1.407       .  A
C1696      H1701   1.083       .  S
C1697      C1698   1.405       .  A
C1698      H1702   1.083       .  S
C1699      C1704   1.405       .  A
C1699      C1708   1.407       .  A
C1704      C1705   1.396       .  A
C1704      H1709   1.083       .  S
C1705      C1706   1.406       .  A
C1705      H1710   1.083       .  S
C1706      C1707   1.406       .  A
C1707      C1708   1.400       .  A
C1707      H1711   1.083       .  S
C1708      H1712   1.083       .  S
C1713      C1714   1.401       .  A
C1713      C1718   1.397       .  A
C1713      H1723   1.084       .  S
C1714      C1719   1.473       .  S
C1714      C1715   1.404       .  A
C1715      C1716   1.398       .  A
C1715      H1720   1.082       .  S
C1716      C1717   1.404       .  A
C1716      H1721   1.084       .  S
C1717      C1718   1.407       .  A
C1718      H1722   1.082       .  S
C1719      C1724   1.402       .  A
C1719      C1728   1.402       .  A
C1724      C1725   1.399       .  A
C1724      H1729   1.083       .  S
C1725      C1726   1.406       .  A
C1725      H1730   1.083       .  S
C1726      C1727   1.404       .  A
C1727      C1728   1.396       .  A
C1727      H1731   1.083       .  S
C1728      H1732   1.083       .  S
C1733      C1734   1.410       .  A
C1733      C1738   1.401       .  A
C1733      H1743   1.082       .  S
C1734      C1739   1.490       .  S
C1734      C1735   1.405       .  A
C1735      C1736   1.393       .  A
C1735      H1740   1.082       .  S
C1736      C1737   1.405       .  A
C1736      H1741   1.083       .  S
C1737      C1738   1.403       .  A
C1738      H1742   1.083       .  S
C1739      C1744   1.406       .  A
C1739      C1748   1.410       .  A
C1744      C1745   1.396       .  A
C1744      H1749   1.082       .  S
C1745      C1746   1.404       .  A
C1745      H1750   1.083       .  S
C1746      C1747   1.400       .  A
C1747      C1748   1.397       .  A
C1747      H1751   1.083       .  S
C1748      H1752   1.082       .  S
C1753      C1754   1.405       .  A
C1753      C1758   1.396       .  A
C1753      H1763   1.083       .  S
C1754      C1759   1.479       .  S
C1754      C1755   1.404       .  A
C1755      C1756   1.399       .  A
C1755      H1760   1.083       .  S
C1756      C1757   1.405       .  A
C1756      H1761   1.083       .  S
C1757      C1758   1.404       .  A
C1758      H1762   1.084       .  S
C1759      C1764   1.406       .  A
C1759      C1768   1.404       .  A
C1764      C1765   1.401       .  A
C1764      H1769   1.083       .  S
C1765      C1766   1.404       .  A
C1765      H1770   1.083       .  S
C1766      C1767   1.402       .  A
C1767      C1768   1.395       .  A
C1767      H1771   1.084       .  S
C1768      H1772   1.083       .  S
C1773      C1774   1.404       .  A
C1773      C1778   1.397       .  A
C1773      H1783   1.083       .  S
C1774      C1779   1.491       .  S
C1774      C1775   1.410       .  A
C1775      C1776   1.401       .  A
C1775      H1780   1.082       .  S
C1776      C1777   1.405       .  A
C1776      H1781   1.083       .  S
C1777      C1778   1.408       .  A
C1778      H1782   1.083       .  S
C1779      C1784   1.410       .  A
C1779      C1788   1.403       .  A
C1784      C1785   1.403       .  A
C1784      H1789   1.082       .  S
C1785      C1786   1.405       .  A
C1785      H1790   1.083       .  S
C1786      C1787   1.408       .  A
C1787      C1788   1.394       .  A
C1787      H1791   1.083       .  S
C1788      H1792   1.083       .  S
C1793      C1794   1.409       .  A
C1793      C1798   1.408       .  A
C1793      H1803   1.082       .  S
C1794      C1799   1.487       .  S
C1794      C1795   1.402       .  A
C1795      C1796   1.390       .  A
C1795      H1800   1.084       .  S
C1796      C1797   1.407       .  A
C1796      H1801   1.083       .  S
C1797      C1798   1.408       .  A
C1798      H1802   1.083       .  S
C1799      C1804   1.405       .  A
C1799      C1808   1.406       .  A
C1804      C1805   1.404       .  A
C1804      H1809   1.083       .  S
C1805      C1806   1.410       .  A
C1805      H1810   1.082       .  S
C1806      C1807   1.404       .  A
C1807      C1808   1.394       .  A
C1807      H1811   1.084       .  S
C1808      H1812   1.083       .  S
C1813      C1814   1.406       .  A
C1813      C1818   1.407       .  A
C1813      H1823   1.083       .  S
C1814      C1819   1.486       .  S
C1814      C1815   1.403       .  A
C1815      C1816   1.394       .  A
C1815      H1820   1.083       .  S
C1816      C1817   1.407       .  A
C1816      H1821   1.083       .  S
C1817      C1818   1.409       .  A
C1818      H1822   1.083       .  S
C1819      C1824   1.406       .  A
C1819      C1828   1.403       .  A
C1824      C1825   1.407       .  A
C1824      H1829   1.083       .  S
C1825      C1826   1.410       .  A
C1825      H1830   1.083   1_455  S
C1826      C1827   1.407       .  A
C1827      C1828   1.394       .  A
C1827      H1831   1.083       .  S
C1828      H1832   1.083       .  S
C1833      C1834   1.404       .  A
C1833      C1838   1.398       .  A
C1833      H1843   1.083       .  S
C1834      C1839   1.491       .  S
C1834      C1835   1.408       .  A
C1835      C1836   1.402       .  A
C1835      H1840   1.083       .  S
C1836      C1837   1.406       .  A
C1836      H1841   1.083       .  S
C1837      C1838   1.408       .  A
C1838      H1842   1.083       .  S
C1839      C1844   1.404       .  A
C1839      C1848   1.408       .  A
C1844      C1845   1.398       .  A
C1844      H1849   1.083       .  S
C1845      C1846   1.409       .  A
C1845      H1850   1.083       .  S
C1846      C1847   1.406       .  A
C1847      C1848   1.402       .  A
C1847      H1851   1.083       .  S
C1848      H1852   1.083       .  S
C1853      C1854   1.405       .  A
C1853      C1858   1.392       .  A
C1853      H1863   1.083       .  S
C1854      C1859   1.480       .  S
C1854      C1855   1.405       .  A
C1855      C1856   1.403       .  A
C1855      H1860   1.084       .  S
C1856      C1857   1.406       .  A
C1856      H1861   1.082       .  S
C1857      C1858   1.403       .  A
C1858      H1862   1.084       .  S
C1859      C1864   1.404       .  A
C1859      C1868   1.404       .  A
C1864      C1865   1.398       .  A
C1864      H1869   1.083       .  S
C1865      C1866   1.406       .  A
C1865      H1870   1.083       .  S
C1866      C1867   1.406       .  A
C1867      C1868   1.397       .  A
C1867      H1871   1.083       .  S
C1868      H1872   1.083       .  S
C1873      C1874   1.406       .  A
C1873      C1878   1.394       .  A
C1873      H1883   1.083       .  S
C1874      C1879   1.491       .  S
C1874      C1875   1.408       .  A
C1875      C1876   1.407       .  A
C1875      H1880   1.083       .  S
C1876      C1877   1.407       .  A
C1876      H1881   1.083       .  S
C1877      C1878   1.404       .  A
C1878      H1882   1.084       .  S
C1879      C1884   1.405       .  A
C1879      C1888   1.410       .  A
C1884      C1885   1.396       .  A
C1884      H1889   1.083       .  S
C1885      C1886   1.403       .  A
C1885      H1890   1.084       .  S
C1886      C1887   1.403       .  A
C1887      C1888   1.406       .  A
C1887      H1891   1.083       .  S
C1888      H1892   1.083       .  S
C1893      C1894   1.405       .  A
C1893      C1898   1.400       .  A
C1893      H1903   1.083       .  S
C1894      C1899   1.479       .  S
C1894      C1895   1.404       .  A
C1895      C1896   1.396       .  A
C1895      H1900   1.083       .  S
C1896      C1897   1.406       .  A
C1896      H1901   1.083       .  S
C1897      C1898   1.405       .  A
C1898      H1902   1.083       .  S
C1899      C1904   1.404       .  A
C1899      C1908   1.406       .  A
C1904      C1905   1.394       .  A
C1904      H1909   1.083       .  S
C1905      C1906   1.402       .  A
C1905      H1910   1.084       .  S
C1906      C1907   1.402       .  A
C1907      C1908   1.401       .  A
C1907      H1911   1.083       .  S
C1908      H1912   1.083       .  S
C1913      C1914   1.408       .  A
C1913      C1918   1.401       .  A
C1913      H1923   1.083       .  S
C1914      C1919   1.488       .  S
C1914      C1915   1.404       .  A
C1915      C1916   1.397       .  A
C1915      H1920   1.083       .  S
C1916      C1917   1.408       .  A
C1916      H1921   1.083       .  S
C1917      C1918   1.406       .  A
C1918      H1922   1.083       .  S
C1919      C1924   1.407       .  A
C1919      C1928   1.405       .  A
C1924      C1925   1.399       .  A
C1924      H1929   1.083       .  S
C1925      C1926   1.406       .  A
C1925      H1930   1.083       .  S
C1926      C1927   1.406       .  A
C1927      C1928   1.398       .  A
C1927      H1931   1.083       .  S
C1928      H1932   1.083       .  S
C1933      C1934   1.407       .  A
C1933      C1938   1.403       .  A
C1933      H1943   1.083       .  S
C1934      C1939   1.482       .  S
C1934      C1935   1.404       .  A
C1935      C1936   1.393       .  A
C1935      H1940   1.083       .  S
C1936      C1937   1.404       .  A
C1936      H1941   1.084       .  S
C1937      C1938   1.405       .  A
C1938      H1942   1.083       .  S
C1939      C1944   1.405       .  A
C1939      C1948   1.405       .  A
C1944      C1945   1.398       .  A
C1944      H1949   1.084       .  S
C1945      C1946   1.405       .  A
C1945      H1950   1.083       .  S
C1946      C1947   1.405       .  A
C1947      C1948   1.398       .  A
C1947      H1951   1.084       .  S
C1948      H1952   1.083       .  S
C1953      C1954   1.404       .  A
C1953      C1958   1.390       .  A
C1953      H1963   1.083       .  S
C1954      C1959   1.480       .  S
C1954      C1955   1.405       .  A
C1955      C1956   1.403       .  A
C1955      H1960   1.083       .  S
C1956      C1957   1.408       .  A
C1956      H1961   1.083       .  S
C1957      C1958   1.405       .  A
C1958      H1962   1.083       .  S
C1959      C1964   1.403       .  A
C1959      C1968   1.408       .  A
C1964      C1965   1.392       .  A
C1964      H1969   1.084       .  S
C1965      C1966   1.401       .  A
C1965      H1970   1.083       .  S
C1966      C1967   1.402       .  A
C1967      C1968   1.403       .  A
C1967      H1971   1.084       .  S
C1968      H1972   1.083       .  S
C1973      C1974   1.406       .  A
C1973      C1978   1.391       .  A
C1973      H1983   1.082       .  S
C1974      C1979   1.487       .  S
C1974      C1975   1.407       .  A
C1975      C1976   1.404       .  A
C1975      H1980   1.083       .  S
C1976      C1977   1.407       .  A
C1976      H1981   1.082       .  S
C1977      C1978   1.402       .  A
C1978      H1982   1.084       .  S
C1979      C1984   1.405       .  A
C1979      C1988   1.410       .  A
C1984      C1985   1.392       .  A
C1984      H1989   1.083       .  S
C1985      C1986   1.402       .  A
C1985      H1990   1.084       .  S
C1986      C1987   1.402       .  A
C1987      C1988   1.405       .  A
C1987      H1991   1.083       .  S
C1988      H1992   1.083       .  S
C1993      C1994   1.404       .  A
C1993      C1998   1.398       .  A
C1993      H2003   1.083       .  S
C1994      C1999   1.490       .  S
C1994      C1995   1.408       .  A
C1995      C1996   1.402       .  A
C1995      H2000   1.083       .  S
C1996      C1997   1.406       .  A
C1996      H2001   1.083       .  S
C1997      C1998   1.409       .  A
C1998      H2002   1.083       .  S
C1999      C2004   1.407       .  A
C1999      C2008   1.405       .  A
C2004      C2005   1.400       .  A
C2004      H2009   1.083       .  S
C2005      C2006   1.406       .  A
C2005      H2010   1.083       .  S
C2006      C2007   1.407       .  A
C2007      C2008   1.399       .  A
C2007      H2011   1.083       .  S
C2008      H2012   1.083       .  S
C2013      C2014   1.401       .  A
C2013      C2018   1.389       .  A
C2013      H2023   1.084       .  S
C2014      C2019   1.477       .  S
C2014      C2015   1.405       .  A
C2015      C2016   1.407       .  A
C2015      H2020   1.083       .  S
C2016      C2017   1.408       .  A
C2016      H2021   1.083       .  S
C2017      C2018   1.404       .  A
C2018      H2022   1.084       .  S
C2019      C2024   1.401       .  A
C2019      C2028   1.404       .  A
C2024      C2025   1.391       .  A
C2024      H2029   1.084       .  S
C2025      C2026   1.405       .  A
C2025      H2030   1.084       .  S
C2026      C2027   1.408       .  A
C2027      C2028   1.406       .  A
C2027      H2031   1.083       .  S
C2028      H2032   1.083       .  S
C2033      C2034   1.404       .  A
C2033      C2038   1.395       .  A
C2033      H2043   1.083       .  S
C2034      C2039   1.479       .  S
C2034      C2035   1.404       .  A
C2035      C2036   1.399       .  A
C2035      H2040   1.083       .  S
C2036      C2037   1.407       .  A
C2036      H2041   1.083       .  S
C2037      C2038   1.406       .  A
C2038      H2042   1.083       .  S
C2039      C2044   1.404       .  A
C2039      C2048   1.406       .  A
C2044      C2045   1.393       .  A
C2044      H2049   1.083       .  S
C2045      C2046   1.404       .  A
C2045      H2050   1.084       .  S
C2046      C2047   1.403       .  A
C2047      C2048   1.399       .  A
C2047      H2051   1.083       .  S
C2048      H2052   1.083       .  S
C2053      C2054   1.409       .  A
C2053      C2058   1.401       .  A
C2053      H2063   1.083       .  S
C2054      C2059   1.487       .  S
C2054      C2055   1.405       .  A
C2055      C2056   1.395       .  A
C2055      H2060   1.082       .  S
C2056      C2057   1.403       .  A
C2056      H2061   1.084       .  S
C2057      C2058   1.402       .  A
C2058      H2062   1.083       .  S
C2059      C2064   1.405       .  A
C2059      C2068   1.408       .  A
C2064      C2065   1.394       .  A
C2064      H2069   1.083       .  S
C2065      C2066   1.404       .  A
C2065      H2070   1.083       .  S
C2066      C2067   1.405       .  A
C2067      C2068   1.402       .  A
C2067      H2071   1.083       .  S
C2068      H2072   1.083       .  S
C2073      C2074   1.410       .  A
C2073      C2078   1.395       .  A
C2073      H2083   1.082       .  S
C2074      C2079   1.489       .  S
C2074      C2075   1.408       .  A
C2075      C2076   1.396       .  A
C2075      H2080   1.082       .  S
C2076      C2077   1.400       .  A
C2076      H2081   1.083       .  S
C2077      C2078   1.399       .  A
C2078      H2082   1.084       .  S
C2079      C2084   1.404       .  A
C2079      C2088   1.411       .  A
C2084      C2085   1.388       .  A
C2084      H2089   1.082       .  S
C2085      C2086   1.406       .  A
C2085      H2090   1.084       .  S
C2086      C2087   1.403       .  A
C2087      C2088   1.402       .  A
C2087      H2091   1.083       .  S
C2088      H2092   1.082       .  S
C2093      C2094   1.404       .  A
C2093      C2098   1.398       .  A
C2093      H2103   1.083       .  S
C2094      C2099   1.480       .  S
C2094      C2095   1.404       .  A
C2095      C2096   1.400       .  A
C2095      H2100   1.083       .  S
C2096      C2097   1.406       .  A
C2096      H2101   1.083       .  S
C2097      C2098   1.405       .  A
C2098      H2102   1.083       .  S
C2099      C2104   1.404       .  A
C2099      C2108   1.404       .  A
C2104      C2105   1.398       .  A
C2104      H2109   1.084       .  S
C2105      C2106   1.405       .  A
C2105      H2110   1.083       .  S
C2106      C2107   1.406       .  A
C2107      C2108   1.400       .  A
C2107      H2111   1.084       .  S
C2108      H2112   1.083       .  S
C2113      C2114   1.404       .  A
C2113      C2118   1.404       .  A
C2113      H2123   1.082       .  S
C2114      C2119   1.474       .  S
C2114      C2115   1.399       .  A
C2115      C2116   1.390       .  A
C2115      H2120   1.084       .  S
C2116      C2117   1.408       .  A
C2116      H2121   1.083       .  S
C2117      C2118   1.407       .  A
C2118      H2122   1.083       .  S
C2119      C2124   1.401       .  A
C2119      C2128   1.402       .  A
C2124      C2125   1.401       .  A
C2124      H2129   1.084       .  S
C2125      C2126   1.409       .  A
C2125      H2130   1.082       .  S
C2126      C2127   1.406       .  A
C2127      C2128   1.393       .  A
C2127      H2131   1.083       .  S
C2128      H2132   1.083       .  S
C2133      C2134   1.404       .  A
C2133      C2138   1.395       .  A
C2133      H2143   1.083       .  S
C2134      C2139   1.481       .  S
C2134      C2135   1.407       .  A
C2135      C2136   1.401       .  A
C2135      H2140   1.083       .  S
C2136      C2137   1.402       .  A
C2136      H2141   1.083       .  S
C2137      C2138   1.404       .  A
C2138      H2142   1.084       .  S
C2139      C2144   1.404       .  A
C2139      C2148   1.405       .  A
C2144      C2145   1.395       .  A
C2144      H2149   1.083       .  S
C2145      C2146   1.404       .  A
C2145      H2150   1.083       .  S
C2146      C2147   1.407       .  A
C2147      C2148   1.402       .  A
C2147      H2151   1.083       .  S
C2148      H2152   1.083       .  S
C2153      C2154   1.401       .  A
C2153      C2158   1.396       .  A
C2153      H2163   1.083       .  S
C2154      C2159   1.473       .  S
C2154      C2155   1.402       .  A
C2155      C2156   1.402       .  A
C2155      H2160   1.083       .  S
C2156      C2157   1.409       .  A
C2156      H2161   1.083       .  S
C2157      C2158   1.407       .  A
C2158      H2162   1.083       .  S
C2159      C2164   1.403   1_655  A
C2159      C2168   1.401       .  A
C2164      C2165   1.403       .  A
C2164      H2169   1.083       .  S
C2165      C2166   1.407       .  A
C2165      H2170   1.083       .  S
C2166      C2167   1.405       .  A
C2167      C2168   1.395   1_455  A
C2167      H2171   1.083       .  S
C2168      H2172   1.084       .  S
C2173      C2174   1.406       .  A
C2173      C2178   1.392       .  A
C2173      H2183   1.083       .  S
C2174      C2179   1.490       .  S
C2174      C2175   1.408       .  A
C2175      C2176   1.406       .  A
C2175      H2180   1.083       .  S
C2176      C2177   1.407       .  A
C2176      H2181   1.083       .  S
C2177      C2178   1.404       .  A
C2178      H2182   1.084       .  S
C2179      C2184   1.410       .  A
C2179      C2188   1.405       .  A
C2184      C2185   1.407       .  A
C2184      H2189   1.082       .  S
C2185      C2186   1.403       .  A
C2185      H2190   1.083       .  S
C2186      C2187   1.402       .  A
C2187      C2188   1.392       .  A
C2187      H2191   1.082       .  S
C2188      H2192   1.083       .  S
C2193      C2194   1.407       .  A
C2193      C2198   1.401       .  A
C2193      H2203   1.083       .  S
C2194      C2199   1.484       .  S
C2194      C2195   1.404       .  A
C2195      C2196   1.395       .  A
C2195      H2200   1.083       .  S
C2196      C2197   1.404       .  A
C2196      H2201   1.084       .  S
C2197      C2198   1.404       .  A
C2198      H2202   1.083       .  S
C2199      C2204   1.405       .  A
C2199      C2208   1.406       .  A
C2204      C2205   1.396       .  A
C2204      H2209   1.083       .  S
C2205      C2206   1.406       .  A
C2205      H2210   1.083       .  S
C2206      C2207   1.406       .  A
C2207      C2208   1.400       .  A
C2207      H2211   1.083       .  S
C2208      H2212   1.083       .  S
C2213      C2214   1.404       .  A
C2213      C2218   1.406       .  A
C2213      H2223   1.083       .  S
C2214      C2219   1.481       .  S
C2214      C2215   1.402       .  A
C2215      C2216   1.395       .  A
C2215      H2220   1.083       .  S
C2216      C2217   1.407       .  A
C2216      H2221   1.083       .  S
C2217      C2218   1.410       .  A
C2218      H2222   1.083       .  S
C2219      C2224   1.405       .  A
C2219      C2228   1.401       .  A
C2224      C2225   1.408       .  A
C2224      H2229   1.083       .  S
C2225      C2226   1.409       .  A
C2225      H2230   1.083       .  S
C2226      C2227   1.408       .  A
C2227      C2228   1.394       .  A
C2227      H2231   1.083       .  S
C2228      H2232   1.084       .  S
C2233      C2234   1.404       .  A
C2233      C2238   1.390       .  A
C2233      H2243   1.083       .  S
C2234      C2239   1.483       .  S
C2234      C2235   1.408       .  A
C2235      C2236   1.403       .  A
C2235      H2240   1.083       .  S
C2236      C2237   1.403       .  A
C2236      H2241   1.083       .  S
C2237      C2238   1.403       .  A
C2238      H2242   1.084       .  S
C2239      C2244   1.403       .  A
C2239      C2248   1.407       .  A
C2244      C2245   1.388       .  A
C2244      H2249   1.083       .  S
C2245      C2246   1.405       .  A
C2245      H2250   1.083       .  S
C2246      C2247   1.407       .  A
C2247      C2248   1.404       .  A
C2247      H2251   1.083       .  S
C2248      H2252   1.082       .  S
C2253      C2254   1.407       .  A
C2253      C2258   1.402       .  A
C2253      H2263   1.083       .  S
C2254      C2259   1.482       .  S
C2254      C2255   1.404       .  A
C2255      C2256   1.394       .  A
C2255      H2260   1.083       .  S
C2256      C2257   1.403       .  A
C2256      H2261   1.084       .  S
C2257      C2258   1.404       .  A
C2258      H2262   1.083       .  S
C2259      C2264   1.407       .  A
C2259      C2268   1.404       .  A
C2264      C2265   1.402       .  A
C2264      H2269   1.083       .  S
C2265      C2266   1.403       .  A
C2265      H2270   1.083       .  S
C2266      C2267   1.404       .  A
C2267      C2268   1.395       .  A
C2267      H2271   1.084       .  S
C2268      H2272   1.083       .  S
C2273      C2274   1.403       .  A
C2273      C2278   1.404       .  A
C2273      H2283   1.083       .  S
C2274      C2279   1.475   1_545  S
C2274      C2275   1.401       .  A
C2275      C2276   1.393       .  A
C2275      H2280   1.084       .  S
C2276      C2277   1.406       .  A
C2276      H2281   1.083       .  S
C2277      C2278   1.408       .  A
C2278      H2282   1.083       .  S
C2279      C2284   1.401       .  A
C2279      C2288   1.402       .  A
C2284      C2285   1.393       .  A
C2284      H2289   1.084       .  S
C2285      C2286   1.406       .  A
C2285      H2290   1.083       .  S
C2286      C2287   1.411       .  A
C2287      C2288   1.404       .  A
C2287      H2291   1.083       .  S
C2288      H2292   1.083       .  S
C2293      C2294   1.403       .  A
C2293      C2298   1.394       .  A
C2293      H2303   1.084       .  S
C2294      C2299   1.479       .  S
C2294      C2295   1.404       .  A
C2295      C2296   1.404       .  A
C2295      H2300   1.083       .  S
C2296      C2297   1.408       .  A
C2296      H2301   1.083       .  S
C2297      C2298   1.405       .  A
C2298      H2302   1.083       .  S
C2299      C2304   1.406       .  A
C2299      C2308   1.401       .  A
C2304      C2305   1.407       .  A
C2304      H2309   1.083       .  S
C2305      C2306   1.408       .  A
C2305      H2310   1.083       .  S
C2306      C2307   1.405       .  A
C2307      C2308   1.390       .  A
C2307      H2311   1.084       .  S
C2308      H2312   1.083       .  S
C2313      C2314   1.406       .  A
C2313      C2318   1.400       .  A
C2313      H2323   1.083       .  S
C2314      C2319   1.480       .  S
C2314      C2315   1.404       .  A
C2315      C2316   1.396       .  A
C2315      H2320   1.083       .  S
C2316      C2317   1.403       .  A
C2316      H2321   1.084       .  S
C2317      C2318   1.404       .  A
C2318      H2322   1.083       .  S
C2319      C2324   1.404       .  A
C2319      C2328   1.406       .  A
C2324      C2325   1.395       .  A
C2324      H2329   1.083       .  S
C2325      C2326   1.404       .  A
C2325      H2330   1.084       .  S
C2326      C2327   1.405       .  A
C2327      C2328   1.401       .  A
C2327      H2331   1.083       .  S
C2328      H2332   1.083       .  S
C2333      C2334   1.408       .  A
C2333      C2338   1.404       .  A
C2333      H2343   1.083       .  S
C2334      C2339   1.489       .  S
C2334      C2335   1.406       .  A
C2335      C2336   1.393       .  A
C2335      H2340   1.083       .  S
C2336      C2337   1.404       .  A
C2336      H2341   1.084       .  S
C2337      C2338   1.405       .  A
C2338      H2342   1.083       .  S
C2339      C2344   1.410       .  A
C2339      C2348   1.406       .  A
C2344      C2345   1.403       .  A
C2344      H2349   1.082       .  S
C2345      C2346   1.402       .  A
C2345      H2350   1.083       .  S
C2346      C2347   1.402       .  A
C2347      C2348   1.395       .  A
C2347      H2351   1.084       .  S
C2348      H2352   1.083       .  S
C2353      C2354   1.403       .  A
C2353      C2358   1.392       .  A
C2353      H2363   1.083       .  S
C2354      C2359   1.486       .  S
C2354      C2355   1.406       .  A
C2355      C2356   1.408       .  A
C2355      H2360   1.083       .  S
C2356      C2357   1.410       .  A
C2356      H2361   1.082       .  S
C2357      C2358   1.407       .  A
C2358      H2362   1.083       .  S
C2359      C2364   1.407       .  A
C2359      C2368   1.403       .  A
C2364      C2365   1.408       .  A
C2364      H2369   1.083       .  S
C2365      C2366   1.408       .  A
C2365      H2370   1.083       .  S
C2366      C2367   1.406       .  A
C2367      C2368   1.393       .  A
C2367      H2371   1.084       .  S
C2368      H2372   1.083       .  S
C2373      C2374   1.405       .  A
C2373      C2378   1.394       .  A
C2373      H2383   1.083       .  S
C2374      C2379   1.483       .  S
C2374      C2375   1.407       .  A
C2375      C2376   1.399       .  A
C2375      H2380   1.083       .  S
C2376      C2377   1.403       .  A
C2376      H2381   1.083       .  S
C2377      C2378   1.403       .  A
C2378      H2382   1.084       .  S
C2379      C2384   1.406       .  A
C2379      C2388   1.406       .  A
C2384      C2385   1.399       .  A
C2384      H2389   1.083       .  S
C2385      C2386   1.405       .  A
C2385      H2390   1.083       .  S
C2386      C2387   1.405       .  A
C2387      C2388   1.395       .  A
C2387      H2391   1.083       .  S
C2388      H2392   1.083       .  S
C2393      C2394   1.404       .  A
C2393      C2398   1.398       .  A
C2393      H2403   1.083       .  S
C2394      C2399   1.483       .  S
C2394      C2395   1.406       .  A
C2395      C2396   1.401       .  A
C2395      H2400   1.083       .  S
C2396      C2397   1.404       .  A
C2396      H2401   1.083       .  S
C2397      C2398   1.406       .  A
C2398      H2402   1.083       .  S
C2399      C2404   1.403       .  A
C2399      C2408   1.407       .  A
C2404      C2405   1.394       .  A
C2404      H2409   1.083       .  S
C2405      C2406   1.405       .  A
C2405      H2410   1.084       .  S
C2406      C2407   1.405       .  A
C2407      C2408   1.404       .  A
C2407      H2411   1.083       .  S
C2408      H2412   1.083       .  S
C2413      C2414   1.409       .  A
C2413      C2418   1.405       .  A
C2413      H2423   1.083       .  S
C2414      C2419   1.486       .  S
C2414      C2415   1.404       .  A
C2415      C2416   1.395       .  A
C2415      H2420   1.083       .  S
C2416      C2417   1.404       .  A
C2416      H2421   1.084       .  S
C2417      C2418   1.403       .  A
C2418      H2422   1.083       .  S
C2419      C2424   1.404       .  A
C2419      C2428   1.409       .  A
C2424      C2425   1.397       .  A
C2424      H2429   1.083       .  S
C2425      C2426   1.404       .  A
C2425      H2430   1.083       .  S
C2426      C2427   1.403       .  A
C2427      C2428   1.403       .  A
C2427      H2431   1.083       .  S
C2428      H2432   1.083       .  S
C2433      C2434   1.408       .  A
C2433      C2438   1.400       .  A
C2433      H2443   1.082       .  S
C2434      C2439   1.484       .  S
C2434      C2435   1.406       .  A
C2435      C2436   1.390       .  A
C2435      H2440   1.083       .  S
C2436      C2437   1.399       .  A
C2436      H2441   1.082       .  S
C2437      C2438   1.403       .  A
C2438      H2442   1.084       .  S
C2439      C2444   1.407       .  A
C2439      C2448   1.404       .  A
C2444      C2445   1.402       .  A
C2444      H2449   1.083       .  S
C2445      C2446   1.407       .  A
C2445      H2450   1.083       .  S
C2446      C2447   1.403       .  A
C2447      C2448   1.387       .  A
C2447      H2451   1.083       .  S
C2448      H2452   1.082       .  S
C2453      C2454   1.404       .  A
C2453      C2458   1.399       .  A
C2453      H2463   1.083       .  S
C2454      C2459   1.473       .  S
C2454      C2455   1.402       .  A
C2455      C2456   1.395       .  A
C2455      H2460   1.084       .  S
C2456      C2457   1.404       .  A
C2456      H2461   1.083       .  S
C2457      C2458   1.404       .  A
C2458      H2462   1.084       .  S
C2459      C2464   1.403       .  A
C2459      C2468   1.402       .  A
C2464      C2465   1.399       .  A
C2464      H2469   1.083       .  S
C2465      C2466   1.406       .  A
C2465      H2470   1.083       .  S
C2466      C2467   1.404       .  A
C2467      C2468   1.395       .  A
C2467      H2471   1.083       .  S
C2468      H2472   1.083       .  S
C2473      C2474   1.406       .  A
C2473      C2478   1.399       .  A
C2473      H2483   1.083       .  S
C2474      C2479   1.488       .  S
C2474      C2475   1.405       .  A
C2475      C2476   1.398       .  A
C2475      H2480   1.083       .  S
C2476      C2477   1.407       .  A
C2476      H2481   1.083       .  S
C2477      C2478   1.407       .  A
C2478      H2482   1.083       .  S
C2479      C2484   1.405       .  A
C2479      C2488   1.407       .  A
C2484      C2485   1.397       .  A
C2484      H2489   1.083       .  S
C2485      C2486   1.407       .  A
C2485      H2490   1.083       .  S
C2486      C2487   1.405       .  A
C2487      C2488   1.400       .  A
C2487      H2491   1.083       .  S
C2488      H2492   1.083       .  S
C2493      C2494   1.402       .  A
C2493      C2498   1.396   1_655  A
C2493      H2503   1.083       .  S
C2494      C2499   1.470       .  S
C2494      C2495   1.401   1_655  A
C2495      C2496   1.400       .  A
C2495      H2500   1.083       .  S
C2496      C2497   1.407       .  A
C2496      H2501   1.083       .  S
C2497      C2498   1.405       .  A
C2498      H2502   1.084       .  S
C2499      C2504   1.401       .  A
C2499      C2508   1.402       .  A
C2504      C2505   1.396       .  A
C2504      H2509   1.084       .  S
C2505      C2506   1.404       .  A
C2505      H2510   1.083       .  S
C2506      C2507   1.405       .  A
C2507      C2508   1.400       .  A
C2507      H2511   1.083       .  S
C2508      H2512   1.083       .  S
C2513      C2514   1.406       .  A
C2513      C2518   1.399       .  A
C2513      H2523   1.083       .  S
C2514      C2519   1.488       .  S
C2514      C2515   1.405       .  A
C2515      C2516   1.399       .  A
C2515      H2520   1.083       .  S
C2516      C2517   1.407       .  A
C2516      H2521   1.083       .  S
C2517      C2518   1.407       .  A
C2518      H2522   1.083       .  S
C2519      C2524   1.407       .  A
C2519      C2528   1.405       .  A
C2524      C2525   1.400       .  A
C2524      H2529   1.083       .  S
C2525      C2526   1.406       .  A
C2525      H2530   1.083       .  S
C2526      C2527   1.408       .  A
C2527      C2528   1.398       .  A
C2527      H2531   1.083       .  S
C2528      H2532   1.083       .  S
C2533      C2534   1.401       .  A
C2533      C2538   1.395       .  A
C2533      H2543   1.083       .  S
C2534      C2539   1.467       .  S
C2534      C2535   1.401       .  A
C2535      C2536   1.398       .  A
C2535      H2540   1.083       .  S
C2536      C2537   1.406       .  A
C2536      H2541   1.083       .  S
C2537      C2538   1.405       .  A
C2538      H2542   1.083       .  S
C2539      C2544   1.400       .  A
C2539      C2548   1.400       .  A
C2544      C2545   1.398       .  A
C2544      H2549   1.083       .  S
C2545      C2546   1.407       .  A
C2545      H2550   1.083       .  S
C2546      C2547   1.406       .  A
C2547      C2548   1.393       .  A
C2547      H2551   1.083       .  S
C2548      H2552   1.084       .  S
C2553      C2554   1.407       .  A
C2553      C2558   1.399       .  A
C2553      H2563   1.082       .  S
C2554      C2559   1.494       .  S
C2554      C2555   1.408       .  A
C2555      C2556   1.401       .  A
C2555      H2560   1.082       .  S
C2556      C2557   1.406       .  A
C2556      H2561   1.083       .  S
C2557      C2558   1.407       .  A
C2558      H2562   1.083       .  S
C2559      C2564   1.409       .  A
C2559      C2568   1.407       .  A
C2564      C2565   1.401       .  A
C2564      H2569   1.082       .  S
C2565      C2566   1.406       .  A
C2565      H2570   1.083       .  S
C2566      C2567   1.407       .  A
C2567      C2568   1.399       .  A
C2567      H2571   1.083       .  S
C2568      H2572   1.082       .  S
C2573      C2574   1.407       .  A
C2573      C2578   1.395       .  A
C2573      H2583   1.082       .  S
C2574      C2579   1.494       .  S
C2574      C2575   1.408       .  A
C2575      C2576   1.404       .  A
C2575      H2580   1.082       .  S
C2576      C2577   1.408       .  A
C2576      H2581   1.083       .  S
C2577      C2578   1.405       .  A
C2578      H2582   1.083       .  S
C2579      C2584   1.411       .  A
C2579      C2588   1.406       .  A
C2584      C2585   1.406       .  A
C2584      H2589   1.083       .  S
C2585      C2586   1.405       .  A
C2585      H2590   1.083       .  S
C2586      C2587   1.403       .  A
C2587      C2588   1.394       .  A
C2587      H2591   1.084       .  S
C2588      H2592   1.082       .  S
C2593      C2594   1.404       .  A
C2593      C2598   1.388       .  A
C2593      H2603   1.083       .  S
C2594      C2599   1.487       .  S
C2594      C2595   1.410       .  A
C2595      C2596   1.408       .  A
C2595      H2600   1.083       .  S
C2596      C2597   1.404       .  A
C2596      H2601   1.083       .  S
C2597      C2598   1.401       .  A
C2598      H2602   1.084       .  S
C2599      C2604   1.406       .  A
C2599      C2608   1.407       .  A
C2604      C2605   1.395       .  A
C2604      H2609   1.083       .  S
C2605      C2606   1.403       .  A
C2605      H2610   1.083       .  S
C2606      C2607   1.405       .  A
C2607      C2608   1.402       .  A
C2607      H2611   1.083       .  S
C2608      H2612   1.083       .  S
C2613      C2614   1.406       .  A
C2613      C2618   1.406       .  A
C2613      H2623   1.083       .  S
C2614      C2619   1.488       .  S
C2614      C2615   1.405       .  A
C2615      C2616   1.395       .  A
C2615      H2620   1.083       .  S
C2616      C2617   1.406       .  A
C2616      H2621   1.083       .  S
C2617      C2618   1.409       .  A
C2618      H2622   1.083       .  S
C2619      C2624   1.408       .  A
C2619      C2628   1.403       .  A
C2624      C2625   1.408       .  A
C2624      H2629   1.083       .  S
C2625      C2626   1.409       .  A
C2625      H2630   1.083       .  S
C2626      C2627   1.407       .  A
C2627      C2628   1.392       .  A
C2627      H2631   1.083       .  S
C2628      H2632   1.083       .  S
C2633      C2634   1.401       .  A
C2633      C2638   1.393       .  A
C2633      H2643   1.084       .  S
C2634      C2639   1.470       .  S
C2634      C2635   1.402       .  A
C2635      C2636   1.402       .  A
C2635      H2640   1.083       .  S
C2636      C2637   1.408       .  A
C2636      H2641   1.083       .  S
C2637      C2638   1.405       .  A
C2638      H2642   1.083       .  S
C2639      C2644   1.403       .  A
C2639      C2648   1.399       .  A
C2644      C2645   1.404       .  A
C2644      H2649   1.083       .  S
C2645      C2646   1.407       .  A
C2645      H2650   1.083       .  S
C2646      C2647   1.405       .  A
C2647      C2648   1.391       .  A
C2647      H2651   1.083       .  S
C2648      H2652   1.084       .  S
C2653      C2654   1.412       .  A
C2653      C2658   1.400       .  A
C2653      H2663   1.082       .  S
C2654      C2659   1.493       .  S
C2654      C2655   1.406       .  A
C2655      C2656   1.396       .  A
C2655      H2660   1.082       .  S
C2656      C2657   1.403       .  A
C2656      H2661   1.083       .  S
C2657      C2658   1.402       .  A
C2658      H2662   1.083       .  S
C2659      C2664   1.405       .  A
C2659      C2668   1.412       .  A
C2664      C2665   1.395       .  A
C2664      H2669   1.082       .  S
C2665      C2666   1.407       .  A
C2665      H2670   1.083       .  S
C2666      C2667   1.403       .  A
C2667      C2668   1.402       .  A
C2667      H2671   1.083       .  S
C2668      H2672   1.082       .  S
C2673      C2674   1.405       .  A
C2673      C2678   1.394       .  A
C2673      H2683   1.083       .  S
C2674      C2679   1.478       .  S
C2674      C2675   1.405       .  A
C2675      C2676   1.398       .  A
C2675      H2680   1.083       .  S
C2676      C2677   1.403       .  A
C2676      H2681   1.083       .  S
C2677      C2678   1.402       .  A
C2678      H2682   1.084       .  S
C2679      C2684   1.404       .  A
C2679      C2688   1.405       .  A
C2684      C2685   1.394       .  A
C2684      H2689   1.083       .  S
C2685      C2686   1.404       .  A
C2685      H2690   1.084       .  S
C2686      C2687   1.405       .  A
C2687      C2688   1.399       .  A
C2687      H2691   1.083       .  S
C2688      H2692   1.083       .  S
C2693      C2694   1.405       .  A
C2693      C2698   1.400       .  A
C2693      H2703   1.083       .  S
C2694      C2699   1.483       .  S
C2694      C2695   1.405       .  A
C2695      C2696   1.397       .  A
C2695      H2700   1.083       .  S
C2696      C2697   1.405       .  A
C2696      H2701   1.083       .  S
C2697      C2698   1.406       .  A
C2698      H2702   1.083       .  S
C2699      C2704   1.405       .  A
C2699      C2708   1.407       .  A
C2704      C2705   1.396       .  A
C2704      H2709   1.083       .  S
C2705      C2706   1.402       .  A
C2705      H2710   1.084       .  S
C2706      C2707   1.403       .  A
C2707      C2708   1.401       .  A
C2707      H2711   1.083       .  S
C2708      H2712   1.083       .  S
C2713      C2714   1.408       .  A
C2713      C2718   1.402       .  A
C2713      H2723   1.082       .  S
C2714      C2719   1.490       .  S
C2714      C2715   1.407       .  A
C2715      C2716   1.391       .  A
C2715      H2720   1.082       .  S
C2716      C2717   1.403       .  A
C2716      H2721   1.083       .  S
C2717      C2718   1.406       .  A
C2718      H2722   1.083       .  S
C2719      C2724   1.410       .  A
C2719      C2728   1.407       .  A
C2724      C2725   1.401       .  A
C2724      H2729   1.082       .  S
C2725      C2726   1.401       .  A
C2725      H2730   1.083       .  S
C2726      C2727   1.401       .  A
C2727      C2728   1.393       .  A
C2727      H2731   1.084       .  S
C2728      H2732   1.083       .  S
C2733      C2734   1.402       .  A
C2733      C2738   1.395       .  A
C2733      H2743   1.083       .  S
C2734      C2739   1.483       .  S
C2734      C2735   1.407       .  A
C2735      C2736   1.399       .  A
C2735      H2740   1.083       .  S
C2736      C2737   1.404       .  A
C2736      H2741   1.083       .  S
C2737      C2738   1.409       .  A
C2738      H2742   1.083       .  S
C2739      C2744   1.402       .  A
C2739      C2748   1.407       .  A
C2744      C2745   1.394       .  A
C2744      H2749   1.083       .  S
C2745      C2746   1.407       .  A
C2745      H2750   1.083       .  S
C2746      C2747   1.406       .  A
C2747      C2748   1.401       .  A
C2747      H2751   1.083       .  S
C2748      H2752   1.083       .  S
C2753      C2754   1.406       .  A
C2753      C2758   1.398       .  A
C2753      H2763   1.084       .  S
C2754      C2759   1.479       .  S
C2754      C2755   1.405       .  A
C2755      C2756   1.395       .  A
C2755      H2760   1.083       .  S
C2756      C2757   1.402       .  A
C2756      H2761   1.084       .  S
C2757      C2758   1.403       .  A
C2758      H2762   1.083       .  S
C2759      C2764   1.405       .  A
C2759      C2768   1.405       .  A
C2764      C2765   1.393       .  A
C2764      H2769   1.083       .  S
C2765      C2766   1.403       .  A
C2765      H2770   1.084       .  S
C2766      C2767   1.405       .  A
C2767      C2768   1.399       .  A
C2767      H2771   1.083       .  S
C2768      H2772   1.083       .  S
C2773      C2774   1.403       .  A
C2773      C2778   1.393       .  A
C2773      H2783   1.084       .  S
C2774      C2779   1.482       .  S
C2774      C2775   1.405       .  A
C2775      C2776   1.406       .  A
C2775      H2780   1.083       .  S
C2776      C2777   1.408       .  A
C2776      H2781   1.083       .  S
C2777      C2778   1.405       .  A
C2778      H2782   1.083       .  S
C2779      C2784   1.407       .  A
C2779      C2788   1.401       .  A
C2784      C2785   1.409       .  A
C2784      H2789   1.083       .  S
C2785      C2786   1.409       .  A
C2785      H2790   1.083       .  S
C2786      C2787   1.406       .  A
C2787      C2788   1.389       .  A
C2787      H2791   1.083       .  S
C2788      H2792   1.084       .  S
C2793      C2794   1.407       .  A
C2793      C2798   1.392       .  A
C2793      H2803   1.082       .  S
C2794      C2799   1.491       .  S
C2794      C2795   1.409       .  A
C2795      C2796   1.405       .  A
C2795      H2800   1.083       .  S
C2796      C2797   1.405       .  A
C2796      H2801   1.083       .  S
C2797      C2798   1.401       .  A
C2798      H2802   1.084       .  S
C2799      C2804   1.406       .  A
C2799      C2808   1.410       .  A
C2804      C2805   1.394       .  A
C2804      H2809   1.083       .  S
C2805      C2806   1.401       .  A
C2805      H2810   1.084       .  S
C2806      C2807   1.402       .  A
C2807      C2808   1.404       .  A
C2807      H2811   1.083       .  S
C2808      H2812   1.082       .  S
C2813      C2814   1.407       .  A
C2813      C2818   1.409       .  A
C2813      H2823   1.083       .  S
C2814      C2819   1.486       .  S
C2814      C2815   1.402       .  A
C2815      C2816   1.393       .  A
C2815      H2820   1.083       .  S
C2816      C2817   1.407       .  A
C2816      H2821   1.083       .  S
C2817      C2818   1.410       .  A
C2818      H2822   1.083       .  S
C2819      C2824   1.404       .  A
C2819      C2828   1.405       .  A
C2824      C2825   1.395       .  A
C2824      H2829   1.083       .  S
C2825      C2826   1.406       .  A
C2825      H2830   1.083       .  S
C2826      C2827   1.410       .  A
C2827      C2828   1.406       .  A
C2827      H2831   1.083       .  S
C2828      H2832   1.083       .  S
C2833      C2834   1.404       .  A
C2833      C2838   1.397       .  A
C2833      H2843   1.083       .  S
C2834      C2839   1.490       .  S
C2834      C2835   1.409       .  A
C2835      C2836   1.400       .  A
C2835      H2840   1.083       .  S
C2836      C2837   1.405       .  A
C2836      H2841   1.083       .  S
C2837      C2838   1.408       .  A
C2838      H2842   1.083       .  S
C2839      C2844   1.409       .  A
C2839      C2848   1.403       .  A
C2844      C2845   1.402       .  A
C2844      H2849   1.083       .  S
C2845      C2846   1.405       .  A
C2845      H2850   1.083       .  S
C2846      C2847   1.409       .  A
C2847      C2848   1.396       .  A
C2847      H2851   1.083       .  S
C2848      H2852   1.083       .  S
C2853      C2854   1.404       .  A
C2853      C2858   1.403       .  A
C2853      H2863   1.083       .  S
C2854      C2859   1.481       .  S
C2854      C2855   1.405       .  A
C2855      C2856   1.393       .  A
C2855      H2860   1.083       .  S
C2856      C2857   1.402       .  A
C2856      H2861   1.084       .  S
C2857      C2858   1.407       .  A
C2858      H2862   1.083       .  S
C2859      C2864   1.406       .  A
C2859      C2868   1.401       .  A
C2864      C2865   1.407       .  A
C2864      H2869   1.083       .  S
C2865      C2866   1.409       .  A
C2865      H2870   1.083       .  S
C2866      C2867   1.406       .  A
C2867      C2868   1.388       .  A
C2867      H2871   1.083       .  S
C2868      H2872   1.084       .  S
C2873      C2874   1.403       .  A
C2873      C2878   1.394       .  A
C2873      H2883   1.083       .  S
C2874      C2879   1.474       .  S
C2874      C2875   1.403       .  A
C2875      C2876   1.399       .  A
C2875      H2880   1.083       .  S
C2876      C2877   1.406       .  A
C2876      H2881   1.083       .  S
C2877      C2878   1.404       .  A
C2878      H2882   1.083       .  S
C2879      C2884   1.402       .  A
C2879      C2888   1.405       .  A
C2884      C2885   1.394       .  A
C2884      H2889   1.083       .  S
C2885      C2886   1.404       .  A
C2885      H2890   1.084       .  S
C2886      C2887   1.403       .  A
C2887      C2888   1.399       .  A
C2887      H2891   1.083       .  S
C2888      H2892   1.083       .  S
C2893      C2894   1.406       .  A
C2893      C2898   1.399       .  A
C2893      H2903   1.083       .  S
C2894      C2899   1.488       .  S
C2894      C2895   1.406       .  A
C2895      C2896   1.400       .  A
C2895      H2900   1.083       .  S
C2896      C2897   1.407       .  A
C2896      H2901   1.083       .  S
C2897      C2898   1.407       .  A
C2898      H2902   1.083       .  S
C2899      C2904   1.408       .  A
C2899      C2908   1.406       .  A
C2904      C2905   1.404       .  A
C2904      H2909   1.083       .  S
C2905      C2906   1.404       .  A
C2905      H2910   1.083       .  S
C2906      C2907   1.403       .  A
C2907      C2908   1.396       .  A
C2907      H2911   1.084       .  S
C2908      H2912   1.082       .  S
C2913      C2914   1.402       .  A
C2913      C2918   1.394       .  A
C2913      H2923   1.084       .  S
C2914      C2919   1.475       .  S
C2914      C2915   1.406       .  A
C2915      C2916   1.399       .  A
C2915      H2920   1.083       .  S
C2916      C2917   1.403       .  A
C2916      H2921   1.083       .  S
C2917      C2918   1.403       .  A
C2918      H2922   1.083       .  S
C2919      C2924   1.406       .  A
C2919      C2928   1.401       .  A
C2924      C2925   1.401       .  A
C2924      H2929   1.083       .  S
C2925      C2926   1.402       .  A
C2925      H2930   1.083       .  S
C2926      C2927   1.405       .  A
C2927      C2928   1.392       .  A
C2927      H2931   1.084       .  S
C2928      H2932   1.084       .  S
C2933      C2934   1.400       .  A
C2933      C2938   1.390       .  A
C2933      H2943   1.084       .  S
C2934      C2939   1.475   1_565  S
C2934      C2935   1.404       .  A
C2935      C2936   1.403       .  A
C2935      H2940   1.082       .  S
C2936      C2937   1.408       .  A
C2936      H2941   1.084       .  S
C2937      C2938   1.406       .  A
C2938      H2942   1.082       .  S
C2939      C2944   1.402       .  A
C2939      C2948   1.402       .  A
C2944      C2945   1.391       .  A
C2944      H2949   1.083       .  S
C2945      C2946   1.405       .  A
C2945      H2950   1.083       .  S
C2946      C2947   1.409       .  A
C2947      C2948   1.402       .  A
C2947      H2951   1.082       .  S
C2948      H2952   1.084       .  S
