geometry optimzed in LAMMPS
_audit_creation_date              2020-12-01 
_audit_creation_method            'lammps2cif' 
_symmetry_space_group_name_H-M    'P1' 
_symmetry_Int_Tables_number       1 
_symmetry_cell_setting            triclinic 
loop_ 
_symmetry_equiv_pos_as_xyz 
  x,y,z 
_cell_length_a                    36.95626958 
_cell_length_b                    36.89905480237458 
_cell_length_c                    50.452812990898266 
_cell_angle_alpha                 89.75705312938598 
_cell_angle_beta                  90.09133670669178 
_cell_angle_gamma                 90.08641951421018 
loop_ 
_atom_site_label 
_atom_site_type_symbol 
_atom_site_fract_x 
_atom_site_fract_y 
_atom_site_fract_z 
_atom_site_charge 
O1          O  0.90111415  0.16793025  0.89816222    -0.86000
O2          O  0.93072549  0.21742365  0.93101308    -0.83000
C3          C  0.95374995  0.23078472  0.94657010     0.97500
O4          O  0.98701240  0.22912338  0.94104181    -0.83100
O5          O  0.00454966  0.15661642  0.94646494    -0.85700
C6          C  0.00788607  0.12341228  0.94126065     1.02000
O7          O  0.00664532  0.11285161  0.91763811    -0.78500
O8          O  0.93332108  0.12180903  0.91259311    -0.78600
C9          C  0.90382250  0.13901943  0.91179384     1.02000
O10         O  0.94099383  0.19863076  0.85367562    -0.86000
O11         O  0.96954727  0.25194362  0.88768270    -0.83000
C12         C  0.00359665  0.25602240  0.88531831     0.97500
O13         O  0.02499292  0.23091214  0.89176778    -0.83100
O14         O  0.04907355  0.16198329  0.89921978    -0.85700
C15         C  0.04811128  0.14607457  0.87696062     1.02000
O16         O  0.01800177  0.13919798  0.86597385    -0.78500
O17         O  0.94241362  0.13977779  0.85838748    -0.78600
C18         C  0.93515803  0.16731640  0.84451402     1.01900
Cr19       Cr  0.93870679  0.20692285  0.89292759     1.93700
Cr20       Cr  0.01347669  0.19340986  0.91822383     1.93200
Cr21       Cr  0.97500495  0.13213763  0.88919603     1.39100
O22         O  0.97587006  0.17794975  0.89969071    -1.23700
O23         O  0.82883277  0.13204110  0.59131474    -0.86000
O24         O  0.77287433  0.08566537  0.58118299    -0.83000
C25         C  0.78163099  0.07406030  0.55850498     0.97500
O26         O  0.80826682  0.05303871  0.55610669    -0.83100
O27         O  0.87418016  0.02033175  0.56610147    -0.85700
C28         C  0.89923178  0.04337517  0.56307132     1.02000
O29         O  0.90115055  0.07058515  0.57784089    -0.78500
O30         O  0.88138323  0.12443844  0.61050151    -0.78600
C31         C  0.86139508  0.14149685  0.59427073     1.02000
O32         O  0.82848983  0.11175506  0.64695761    -0.86000
O33         O  0.77696598  0.05809081  0.63429267    -0.83000
C34         C  0.76533269  0.02906546  0.62397558     0.97500
O35         O  0.77819390  0.01749299  0.60231533    -0.83100
O36         O  0.84516068  0.98952300  0.61340152    -0.85700
C37         C  0.87789171  0.98892478  0.62049177     1.02000
O38         O  0.89689377  0.01751318  0.61924919    -0.78500
O39         O  0.87047962  0.07070271  0.65222564    -0.78600
C40         C  0.85141969  0.09576304  0.66163403     1.01900
Cr41       Cr  0.80446664  0.09446734  0.61303747     1.93700
Cr42       Cr  0.82714562  0.02336647  0.58590581     1.93200
Cr43       Cr  0.88378726  0.07015387  0.61444965     1.39100
O44         O  0.83842066  0.06230421  0.60467700    -1.23700
O45         O  0.08826583  0.90947749  0.09914925    -0.86000
O46         O  0.01621590  0.92604854  0.09579226    -0.83000
C47         C  0.01471731  0.91845535  0.07159688     0.97500
O48         O  0.01474450  0.88579174  0.06456537    -0.83100
O49         O  0.02717827  0.81250972  0.06512429    -0.85700
C50         C  0.06032433  0.80599732  0.06114345     1.02000
O51         O  0.08358040  0.81398510  0.07837528    -0.78500
O52         O  0.11636212  0.85984109  0.11192972    -0.78600
C53         C  0.11578607  0.88928128  0.09869613     1.02000
O54         O  0.07912680  0.88864572  0.15273327    -0.86000
O55         O  0.00349309  0.89609714  0.14586884    -0.83000
C56         C  0.97273010  0.89185210  0.13512294     0.97500
O57         O  0.96980313  0.87825180  0.11207317    -0.83100
O58         O  0.98750530  0.80704218  0.11383327    -0.85700
C59         C  0.00661002  0.78050959  0.12098664     1.02000
O60         O  0.04088908  0.78210595  0.12017509    -0.78500
O61         O  0.07186096  0.83017341  0.15539498    -0.78600
C62         C  0.08136628  0.85961319  0.16579963     1.01900
Cr63       Cr  0.04653074  0.90139414  0.12265193     1.93700
Cr64       Cr  0.00280968  0.84675275  0.09039090     1.93200
Cr65       Cr  0.07536024  0.82402672  0.11623311     1.39100
O66         O  0.04131839  0.85680525  0.10998451    -1.23700
O67         O  0.12935234  0.90420360  0.40042914    -0.86000
O68         O  0.11052180  0.95907898  0.43334714    -0.83000
C69         C  0.11099947  0.98853515  0.44567350     0.97500
O70         O  0.13395575  0.01265093  0.43982186    -0.83100
O71         O  0.20053528  0.98184272  0.45084207    -0.85700
C72         C  0.22724483  0.96077825  0.44881044     1.02000
O73         O  0.23654332  0.94887465  0.42631517    -0.78500
O74         O  0.18321310  0.89969309  0.41795187    -0.78600
C75         C  0.15107669  0.88850599  0.41605733     1.02000
O76         O  0.13411022  0.95490190  0.35752299    -0.86000
O77         O  0.10940968  0.00989987  0.38986817    -0.83000
C78         C  0.12788281  0.03838390  0.38568185     0.97500
O79         O  0.16132962  0.03884677  0.39077616    -0.83100
O80         O  0.22962168  0.01468542  0.40382058    -0.85700
C81         C  0.24281267  0.00293160  0.38237084     1.02000
O82         O  0.23085721  0.97387481  0.37231668    -0.78500
O83         O  0.18067718  0.91846511  0.36198678    -0.78600
C84         C  0.15469214  0.93092876  0.34825353     1.01900
Cr85       Cr  0.12445567  0.95791252  0.39572257     1.93700
Cr86       Cr  0.18074206  0.00882626  0.42004295     1.93200
Cr87       Cr  0.20513244  0.93745360  0.39494854     1.39100
O88         O  0.17018313  0.96829733  0.40314685    -1.23700
O89         O  0.32889637  0.90031331  0.91773538    -0.86000
O90         O  0.27405211  0.94763551  0.92707177    -0.83000
C91         C  0.28314411  0.95838964  0.94997946     0.97500
O92         O  0.30980270  0.97941356  0.95261573    -0.83100
O93         O  0.37517437  0.01299131  0.94273038    -0.85700
C94         C  0.39961850  0.98990779  0.94716680     1.02000
O95         O  0.40138627  0.96150682  0.93364610    -0.78500
O96         O  0.38266366  0.90714560  0.90031299    -0.78600
C97         C  0.36122975  0.88999866  0.91544033     1.02000
O98         O  0.33116090  0.92043926  0.86227527    -0.86000
O99         O  0.28050326  0.97493098  0.87360840    -0.83000
C100        C  0.26860171  0.00380704  0.88380318     0.97500
O101        O  0.27991902  0.01447369  0.90615398    -0.83100
O102        O  0.34708534  0.04185499  0.89508120    -0.85700
C103        C  0.38012879  0.04252485  0.88887110     1.02000
O104        O  0.39940148  0.01420055  0.89117552    -0.78500
O105        O  0.37490023  0.96004711  0.85821603    -0.78600
C106        C  0.35582230  0.93516824  0.84843296     1.01900
Cr107      Cr  0.30620260  0.93819060  0.89559095     1.93700
Cr108      Cr  0.32864872  0.00895304  0.92282808     1.93200
Cr109      Cr  0.38600820  0.96140376  0.89630653     1.39100
O110        O  0.34030794  0.96979253  0.90461117    -1.23700
O111        O  0.39371349  0.86118399  0.60976129    -0.86000
O112        O  0.42247375  0.81136442  0.57724845    -0.83000
C113        C  0.44495154  0.79838548  0.56121828     0.97500
O114        O  0.47846080  0.80062017  0.56601295    -0.83100
O115        O  0.49540633  0.87330060  0.55971510    -0.85700
C116        C  0.49875917  0.90660140  0.56466610     1.02000
O117        O  0.49813537  0.91736683  0.58825260    -0.78500
O118        O  0.42556928  0.90709634  0.59456572    -0.78600
C119        C  0.39624978  0.88961535  0.59555163     1.02000
O120        O  0.43571377  0.83155647  0.65407848    -0.86000
O121        O  0.46341054  0.77828847  0.62012742    -0.83000
C122        C  0.49757904  0.77493014  0.62202708     0.97500
O123        O  0.51847215  0.80002234  0.61464063    -0.83100
O124        O  0.54183150  0.86921185  0.60633539    -0.85700
C125        C  0.54145855  0.88584975  0.62835616     1.02000
O126        O  0.51167774  0.89205323  0.63990817    -0.78500
O127        O  0.43653349  0.89028458  0.64887895    -0.78600
C128        C  0.43087029  0.86293263  0.66335177     1.01900
Cr129      Cr  0.43190932  0.82272097  0.61495317     1.93700
Cr130      Cr  0.50567164  0.83694237  0.58811630     1.93200
Cr131      Cr  0.46781232  0.89794920  0.61740640     1.39100
O132        O  0.46865040  0.85204671  0.60725898    -1.23700
O133        O  0.63661357  0.12719237  0.10779717    -0.86000
O134        O  0.61518280  0.07493100  0.07383788    -0.83000
C135        C  0.61469683  0.04669728  0.06010663     0.97500
O136        O  0.63657264  0.02124419  0.06497167    -0.83100
O137        O  0.70373903  0.05024802  0.05434213    -0.85700
C138        C  0.73148676  0.06990558  0.05665814     1.02000
O139        O  0.74146683  0.08078971  0.07936411    -0.78500
O140        O  0.69000148  0.13091405  0.08957830    -0.78600
C141        C  0.65813887  0.14255087  0.09184988     1.02000
O142        O  0.64079930  0.07378100  0.14915749    -0.86000
O143        O  0.61321110  0.02169327  0.11580777    -0.83000
C144        C  0.63129723  0.99293474  0.11965582     0.97500
O145        O  0.66428629  0.99168273  0.11333125    -0.83100
O146        O  0.73269986  0.01451443  0.10013696    -0.85700
C147        C  0.74623085  0.02432601  0.12202909     1.02000
O148        O  0.73557504  0.05322940  0.13297320    -0.78500
O149        O  0.68766969  0.10991817  0.14527651    -0.78600
C150        C  0.66168646  0.09716348  0.15892218     1.01900
Cr151      Cr  0.62990327  0.07345951  0.11112356     1.93700
Cr152      Cr  0.68376517  0.02247488  0.08457302     1.93200
Cr153      Cr  0.71103256  0.09164458  0.11148826     1.39100
O154        O  0.67496867  0.06230547  0.10273077    -1.23700
O155        O  0.58587130  0.12062382  0.40822280    -0.86000
O156        O  0.51417103  0.10254370  0.40959827    -0.83000
C157        C  0.50965286  0.11105643  0.43342654     0.97500
O158        O  0.50882823  0.14403523  0.43977299    -0.83100
O159        O  0.52071541  0.21799649  0.43751814    -0.85700
C160        C  0.55342851  0.22508819  0.44284704     1.02000
O161        O  0.57819450  0.21577185  0.42726577    -0.78500
O162        O  0.61416513  0.17009072  0.39540675    -0.78600
C163        C  0.61337701  0.14086341  0.40890352     1.02000
O164        O  0.57948396  0.13939439  0.35388632    -0.86000
O165        O  0.50361041  0.12961094  0.35851058    -0.83000
C166        C  0.47219706  0.13319773  0.36825496     0.97500
O167        O  0.46757763  0.14862091  0.39049475    -0.83100
O168        O  0.48454448  0.22064883  0.38753546    -0.85700
C169        C  0.50363226  0.24812638  0.38238694     1.02000
O170        O  0.53790387  0.24669987  0.38407293    -0.78500
O171        O  0.57178109  0.19777491  0.35011370    -0.78600
C172        C  0.58225502  0.16814658  0.34049095     1.01900
Cr173      Cr  0.54545791  0.12684513  0.38321336     1.93700
Cr174      Cr  0.49858138  0.18193849  0.41244069     1.93200
Cr175      Cr  0.57266945  0.20499189  0.38928798     1.39100
O176        O  0.53861641  0.17178616  0.39469071    -1.23700
O177        O  0.61213928  0.34117723  0.91234869    -0.86000
O178        O  0.56421107  0.28706122  0.92243692    -0.83000
C179        C  0.55593101  0.29699408  0.94556459     0.97500
O180        O  0.53556953  0.32400807  0.94873579    -0.83100
O181        O  0.50257006  0.38994217  0.93939247    -0.85700
C182        C  0.52633942  0.41415531  0.94270725     1.02000
O183        O  0.55305665  0.41612305  0.92742020    -0.78500
O184        O  0.60619027  0.39483900  0.89431132    -0.78600
C185        C  0.62271609  0.37348382  0.90992617     1.02000
O186        O  0.59127872  0.34252888  0.85718869    -0.86000
O187        O  0.53609069  0.29239175  0.87024942    -0.83000
C188        C  0.50844778  0.27999900  0.88205296     0.97500
O189        O  0.49751828  0.29386354  0.90356221    -0.83100
O190        O  0.47069340  0.36153607  0.89258537    -0.85700
C191        C  0.47084024  0.39412782  0.88491204     1.02000
O192        O  0.49963199  0.41287500  0.88587822    -0.78500
O193        O  0.55213482  0.38644089  0.85270915    -0.78600
C194        C  0.57617708  0.36647156  0.84293654     1.01900
Cr195      Cr  0.57363525  0.31865225  0.89092829     1.93700
Cr196      Cr  0.50466212  0.34296615  0.91958167     1.93200
Cr197      Cr  0.55200396  0.39897414  0.89059298     1.39100
O198        O  0.54299133  0.35357971  0.90000750    -1.23700
O199        O  0.65599368  0.39380366  0.60138316    -0.86000
O200        O  0.70875548  0.42498366  0.57163258    -0.83000
C201        C  0.72501131  0.44864159  0.55813432     0.97500
O202        O  0.72260114  0.48171765  0.56431329    -0.83100
O203        O  0.65123024  0.49909360  0.55183411    -0.85700
C204        C  0.61725080  0.49954210  0.55430118     1.02000
O205        O  0.60291557  0.49786633  0.57692315    -0.78500
O206        O  0.61128146  0.42595846  0.58491040    -0.78600
C207        C  0.62781525  0.39630388  0.58698767     1.02000
O208        O  0.68097641  0.43549895  0.64728866    -0.86000
O209        O  0.73705725  0.46421637  0.61719853    -0.83000
C210        C  0.73892454  0.49813120  0.62148988     0.97500
O211        O  0.71434989  0.51909999  0.61342855    -0.83100
O212        O  0.64746717  0.54314179  0.59891134    -0.85700
C213        C  0.62867167  0.54177685  0.61989425     1.02000
O214        O  0.62151957  0.51158421  0.63058237    -0.78500
O215        O  0.62274110  0.43707162  0.63988533    -0.78600
C216        C  0.64894105  0.43157926  0.65543680     1.01900
Cr217      Cr  0.69355862  0.43253677  0.60887209     1.93700
Cr218      Cr  0.68263521  0.50778727  0.58335179     1.93200
Cr219      Cr  0.61835549  0.46811828  0.60773883     1.39100
O220        O  0.66504248  0.46943190  0.60018649    -1.23700
O221        O  0.37352278  0.62481005  0.39846129    -0.86000
O222        O  0.39557141  0.57182008  0.43223527    -0.83000
C223        C  0.39713421  0.54264527  0.44503231     0.97500
O224        O  0.37392182  0.51800223  0.44101736    -0.83100
O225        O  0.30625805  0.54728787  0.45229706    -0.85700
C226        C  0.27857874  0.56705258  0.44991940     1.02000
O227        O  0.26861427  0.57806520  0.42721420    -0.78500
O228        O  0.32012016  0.62830361  0.41673940    -0.78600
C229        C  0.35171978  0.64050444  0.41401248     1.02000
O230        O  0.36769650  0.57060375  0.35703616    -0.86000
O231        O  0.39614752  0.51880347  0.39049426    -0.83000
C232        C  0.37832310  0.48963118  0.38759704     0.97500
O233        O  0.34512826  0.48860185  0.39339422    -0.83100
O234        O  0.27666040  0.51180310  0.40659181    -0.85700
C235        C  0.26262245  0.52264528  0.38503095     1.02000
O236        O  0.27394338  0.55131635  0.37393270    -0.78500
O237        O  0.32210803  0.60796047  0.36128139    -0.78600
C238        C  0.34674280  0.59388316  0.34716919     1.01900
Cr239      Cr  0.37976414  0.57071076  0.39502081     1.93700
Cr240      Cr  0.32597644  0.51956343  0.42203959     1.93200
Cr241      Cr  0.29892257  0.58924981  0.39514148     1.39100
O242        O  0.33482248  0.55963251  0.40383673    -1.23700
O243        O  0.40183724  0.64635250  0.11423941    -0.86000
O244        O  0.45490110  0.62184677  0.08171265    -0.83000
C245        C  0.48393593  0.62027264  0.06887986     0.97500
O246        O  0.50921825  0.64227789  0.07376427    -0.83100
O247        O  0.47999146  0.70950739  0.06116419    -0.85700
C248        C  0.46064237  0.73758453  0.06309981     1.02000
O249        O  0.45226790  0.74949499  0.08581136    -0.78500
O250        O  0.40026091  0.70080215  0.09704564    -0.78600
C251        C  0.38731922  0.66937393  0.09886045     1.02000
O252        O  0.45454021  0.65041541  0.15691484    -0.86000
O253        O  0.50657513  0.62111995  0.12482943    -0.83000
C254        C  0.53598753  0.63841404  0.12816704     0.97500
O255        O  0.53850875  0.67124634  0.12110503    -0.83100
O256        O  0.51718633  0.74003789  0.10597191    -0.85700
C257        C  0.50723785  0.75534204  0.12714707     1.02000
O258        O  0.47913189  0.74457931  0.13914392    -0.78500
O259        O  0.42064428  0.69871431  0.15244278    -0.78600
C260        C  0.43287448  0.67301837  0.16662551     1.01900
Cr261      Cr  0.45537133  0.63841064  0.11892299     1.93700
Cr262      Cr  0.50816043  0.69042868  0.09183327     1.93200
Cr263      Cr  0.44013113  0.72046138  0.11837724     1.39100
O264        O  0.46808593  0.68308534  0.11010545    -1.23700
O265        O  0.18104041  0.63919959  0.91612038    -0.86000
O266        O  0.23641078  0.59273770  0.92740288    -0.83000
C267        C  0.22724525  0.58363237  0.95065896     0.97500
O268        O  0.20088051  0.56246870  0.95411171    -0.83100
O269        O  0.13541975  0.52916181  0.94633540    -0.85700
C270        C  0.11179306  0.55340373  0.94972697     1.02000
O271        O  0.10935712  0.57958289  0.93388642    -0.78500
O272        O  0.12792118  0.63063504  0.89810858    -0.78600
C273        C  0.14856454  0.64876129  0.91309831     1.02000
O274        O  0.17929620  0.61501310  0.86152654    -0.86000
O275        O  0.23083319  0.56214388  0.87560053    -0.83000
C276        C  0.24299712  0.53419285  0.88717916     0.97500
O277        O  0.23027012  0.52374710  0.90923840    -0.83100
O278        O  0.16265796  0.49554393  0.89969243    -0.85700
C279        C  0.12977207  0.49507739  0.89286857     1.02000
O280        O  0.11087176  0.52363941  0.89434240    -0.78500
O281        O  0.13639526  0.57427452  0.85899706    -0.78600
C282        C  0.15512131  0.59870271  0.84822209     1.01900
Cr283      Cr  0.20426021  0.59991920  0.89566558     1.93700
Cr284      Cr  0.18167936  0.53075152  0.92580398     1.93200
Cr285      Cr  0.12470949  0.57633622  0.89685427     1.39100
O286        O  0.17029244  0.56859338  0.90579478    -1.23700
O287        O  0.10974821  0.66453773  0.60950098    -0.86000
O288        O  0.07909116  0.71342094  0.57681939    -0.83000
C289        C  0.05596974  0.72701107  0.56145811     0.97500
O290        O  0.02263099  0.72491958  0.56696644    -0.83100
O291        O  0.00562806  0.65253819  0.56021921    -0.85700
C292        C  0.00316571  0.61902022  0.56476136     1.02000
O293        O  0.00616405  0.60713955  0.58807738    -0.78500
O294        O  0.07879955  0.61854347  0.59372492    -0.78600
C295        C  0.10789300  0.63626838  0.59524880     1.02000
O296        O  0.06740042  0.69320326  0.65354207    -0.86000
O297        O  0.03905818  0.74649902  0.61959281    -0.83000
C298        C  0.00499841  0.74957138  0.62238469     0.97500
O299        O  0.98424249  0.72375044  0.61641585    -0.83100
O300        O  0.96163906  0.65426402  0.60785160    -0.85700
C301        C  0.96373418  0.63668930  0.62952241     1.02000
O302        O  0.99412819  0.63082411  0.64025041    -0.78500
O303        O  0.06883121  0.63449353  0.64826981    -0.78600
C304        C  0.07350588  0.66192578  0.66274279     1.01900
Cr305      Cr  0.07086828  0.70228937  0.61457447     1.93700
Cr306      Cr  0.99642685  0.68772498  0.58922818     1.93200
Cr307      Cr  0.03697844  0.62642230  0.61705045     1.39100
O308        O  0.03456922  0.67249935  0.60728397    -1.23700
O309        O  0.91782479  0.40345154  0.40723403    -0.86000
O310        O  0.98918360  0.42390189  0.40949628    -0.83000
C311        C  0.99181458  0.41640126  0.43365292     0.97500
O312        O  0.99261845  0.38369097  0.44084440    -0.83100
O313        O  0.98269057  0.30963280  0.44078670    -0.85700
C314        C  0.95023427  0.29951725  0.44388346     1.02000
O315        O  0.92687381  0.30592737  0.42631632    -0.78500
O316        O  0.89160399  0.35268140  0.39452064    -0.78600
C317        C  0.89124251  0.38193825  0.40784230     1.02000
O318        O  0.92625683  0.38504785  0.35362064    -0.86000
O319        O  0.00194291  0.39520887  0.35956898    -0.83000
C320        C  0.03296526  0.39199694  0.37014321     0.97500
O321        O  0.03685653  0.37763579  0.39296032    -0.83100
O322        O  0.02265212  0.30521693  0.39228303    -0.85700
C323        C  0.00453446  0.27852208  0.38409643     1.02000
O324        O  0.97025866  0.27932756  0.38361910    -0.78500
O325        O  0.93695546  0.32746885  0.34970748    -0.78600
C326        C  0.92597552  0.35679686  0.33985980     1.01900
Cr327      Cr  0.95923504  0.39803096  0.38324194     1.93700
Cr328      Cr  0.00558280  0.34481080  0.41518191     1.93200
Cr329      Cr  0.93411635  0.31912453  0.38878594     1.39100
O330        O  0.96660449  0.35333238  0.39559150    -1.23700
O331        O  0.87886052  0.40845079  0.10588391    -0.86000
O332        O  0.89760681  0.46390236  0.07284465    -0.83000
C333        C  0.89755720  0.49395611  0.06110975     0.97500
O334        O  0.87380467  0.51733903  0.06642946    -0.83100
O335        O  0.80724533  0.48589803  0.05551204    -0.85700
C336        C  0.78051036  0.46477044  0.05783459     1.02000
O337        O  0.77127749  0.45344275  0.08055986    -0.78500
O338        O  0.82522289  0.40406116  0.08802682    -0.78600
C339        C  0.85738180  0.39291988  0.09006634     1.02000
O340        O  0.87407481  0.45906442  0.14859544    -0.86000
O341        O  0.89878041  0.51379825  0.11621406    -0.83000
C342        C  0.88062494  0.54231597  0.12038707     0.97500
O343        O  0.84714713  0.54319892  0.11528859    -0.83100
O344        O  0.77872106  0.51865712  0.10289820    -0.85700
C345        C  0.76612342  0.50658088  0.12452687     1.02000
O346        O  0.77796636  0.47723590  0.13434303    -0.78500
O347        O  0.82822411  0.42176001  0.14414016    -0.78600
C348        C  0.85392840  0.43464445  0.15790736     1.01900
Cr349      Cr  0.88373959  0.46212038  0.11045045     1.93700
Cr350      Cr  0.82725489  0.51308252  0.08622062     1.93200
Cr351      Cr  0.80331485  0.44129573  0.11142920     1.39100
O352        O  0.83804440  0.47247229  0.10313922    -1.23700
C353        C  0.86953382  0.38813760  0.28221188    -0.11500
C354        C  0.88926370  0.37504209  0.26059452     0.05700
C355        C  0.91932230  0.35249557  0.26521494    -0.10200
C356        C  0.93011227  0.34416701  0.29119350    -0.11900
C357        C  0.91150066  0.35913232  0.31272916    -0.01700
C358        C  0.88080316  0.38060422  0.30802261    -0.10800
C359        C  0.88032395  0.38802706  0.23362644     0.05700
H360        H  0.93492542  0.34217602  0.24874209     0.07600
H361        H  0.95408151  0.32787773  0.29444062     0.11100
H362        H  0.86614632  0.39249399  0.32440227     0.11400
H363        H  0.84653244  0.40583518  0.27912531     0.07700
C364        C  0.84467145  0.38626379  0.22397937    -0.11500
C365        C  0.83586835  0.40133096  0.19929078    -0.02800
C366        C  0.86240942  0.41922406  0.18423533    -0.01700
C367        C  0.89803532  0.42097357  0.19398302    -0.11900
C368        C  0.90696997  0.40521694  0.21831373    -0.10300
H369        H  0.82367895  0.37328630  0.23560260     0.07700
H370        H  0.80828476  0.39947037  0.19215051     0.11400
H371        H  0.91915642  0.43421363  0.18263353     0.11100
H372        H  0.93450004  0.40734944  0.22554565     0.07600
C373        C  0.00986303  0.56977380  0.49972007    -0.11500
C374        C  0.99436728  0.53610948  0.50656110     0.05700
C375        C  0.97846685  0.53177569  0.53157449    -0.10200
C376        C  0.97978975  0.55971145  0.54992412    -0.11900
C377        C  0.99672317  0.59269978  0.54357686    -0.01700
C378        C  0.01086877  0.59800579  0.51810923    -0.10800
C379        C  0.99498380  0.50533760  0.48792101     0.05700
H380        H  0.96539648  0.50657291  0.53710708     0.07600
H381        H  0.96831286  0.55518690  0.56941585     0.11100
H382        H  0.02432412  0.62315507  0.51293879     0.11400
H383        H  0.02242516  0.57381483  0.48055768     0.07700
C384        C  0.98859553  0.51120971  0.46088963    -0.11500
C385        C  0.98812726  0.48218585  0.44341958    -0.10800
C386        C  0.99385404  0.44655891  0.45259369    -0.01700
C387        C  0.00059518  0.44057986  0.47957878    -0.11900
C388        C  0.00131500  0.46978679  0.49710264    -0.10300
H389        H  0.98314995  0.53816596  0.45330263     0.07700
H390        H  0.98264361  0.48770145  0.42269711     0.11400
H391        H  0.00524999  0.41344743  0.48710809     0.11100
H392        H  0.00693699  0.46457717  0.51783598     0.07600
C393        C  0.02530872  0.56525325  0.98750465    -0.11500
C394        C  0.02555051  0.53446326  0.00393491     0.05700
C395        C  0.05671518  0.51274230  0.00505520    -0.10200
C396        C  0.08601631  0.52012021  0.98850597    -0.11900
C397        C  0.08463217  0.54949408  0.97077498    -0.01700
C398        C  0.05467308  0.57283670  0.97121436    -0.10800
C399        C  0.99246282  0.52387412  0.01837032     0.05700
H400        H  0.05797173  0.48940158  0.01810206     0.07600
H401        H  0.10901706  0.50197497  0.98878902     0.11100
H402        H  0.05292383  0.59582880  0.95784999     0.11400
H403        H  0.00164836  0.58240854  0.98608418     0.07700
C404        C  0.97016543  0.55043124  0.02959635    -0.11500
C405        C  0.93815930  0.54060287  0.04217621    -0.10800
C406        C  0.92814738  0.50398662  0.04417849    -0.01700
C407        C  0.95029309  0.47734316  0.03298492    -0.11900
C408        C  0.98207030  0.48724349  0.01995694    -0.10300
H409        H  0.97773849  0.57878115  0.02905155     0.07700
H410        H  0.92201727  0.56159037  0.05132120     0.11400
H411        H  0.94320828  0.44891468  0.03454716     0.11100
H412        H  0.99835225  0.46625888  0.01098402     0.07600
C413        C  0.10953847  0.60076240  0.78119878    -0.11500
C414        C  0.12458914  0.63170789  0.76922253     0.05700
C415        C  0.15055060  0.65184810  0.78331258    -0.10200
C416        C  0.16150069  0.64078737  0.80879197    -0.11900
C417        C  0.14643363  0.60957407  0.82058998    -0.01700
C418        C  0.12035326  0.58980436  0.80641149    -0.10800
C419        C  0.11376498  0.64125640  0.74168546     0.05700
H420        H  0.16271659  0.67572206  0.77447846     0.07600
H421        H  0.18134959  0.65682670  0.81934466     0.11100
H422        H  0.10784621  0.56587736  0.81491248     0.11400
H423        H  0.08906661  0.58499976  0.77105355     0.07700
C424        C  0.11052597  0.61349519  0.72295463    -0.11500
C425        C  0.09758928  0.62068781  0.69760936    -0.10800
C426        C  0.08766887  0.65600716  0.68997872    -0.01700
C427        C  0.09186842  0.68427689  0.70838016    -0.11900
C428        C  0.10489315  0.67694125  0.73409075    -0.10300
H429        H  0.11783689  0.58589040  0.72798988     0.07700
H430        H  0.09529682  0.59822851  0.68396393     0.11400
H431        H  0.08467446  0.71179713  0.70303963     0.11100
H432        H  0.10707470  0.69885724  0.74820409     0.07600
C433        C  0.60336466  0.56299752  0.14030434    -0.11500
C434        C  0.63453438  0.58226924  0.14795498     0.05700
C435        C  0.63147889  0.61985213  0.15229324    -0.10200
C436        C  0.59894814  0.63802181  0.14710501    -0.11900
C437        C  0.56851249  0.61894945  0.13794489    -0.01700
C438        C  0.57073632  0.58107904  0.13551541    -0.10800
C439        C  0.67068620  0.56414560  0.14773079     0.05700
H440        H  0.65465201  0.63550691  0.15871925     0.07600
H441        H  0.59795786  0.66717514  0.14942452     0.11100
H442        H  0.54783951  0.56560548  0.12832259     0.11400
H443        H  0.60463609  0.53422028  0.13635454     0.07700
C444        C  0.67472601  0.52730097  0.15474593    -0.11500
C445        C  0.70704376  0.50876163  0.14930026    -0.10800
C446        C  0.73573198  0.52672353  0.13660454    -0.01700
C447        C  0.73274363  0.56410131  0.13166362    -0.11900
C448        C  0.70073710  0.58257042  0.13716303    -0.10300
H449        H  0.65238023  0.51240130  0.16337318     0.07700
H450        H  0.70864292  0.47996025  0.15333121     0.11400
H451        H  0.75457564  0.57872468  0.12206902     0.11100
H452        H  0.69882009  0.61072924  0.13125235     0.07600
C453        C  0.31897910  0.61262890  0.06119317    -0.11500
C454        C  0.30902278  0.63660347  0.04070296     0.05700
C455        C  0.32170165  0.67244989  0.04145455    -0.10200
C456        C  0.34515722  0.68364720  0.06153443    -0.11900
C457        C  0.35683898  0.65916530  0.08124154    -0.01700
C458        C  0.34282611  0.62373608  0.08120943    -0.10800
C459        C  0.28731965  0.62378453  0.01777748     0.05700
H460        H  0.31409467  0.69163323  0.02613690     0.07600
H461        H  0.35549586  0.71112945  0.06083217     0.11100
H462        H  0.35149800  0.60417381  0.09593938     0.11400
H463        H  0.30973773  0.58476057  0.06101119     0.07700
C464        C  0.29768027  0.63292578  0.99179232    -0.11500
C465        C  0.27822082  0.61987042  0.97004558    -0.10800
C466        C  0.24786879  0.59742433  0.97377242    -0.01700
C467        C  0.23722933  0.58866758  0.99979183    -0.11900
C468        C  0.25683174  0.60160921  0.02155666    -0.10300
H469        H  0.32133330  0.64962387  0.98826231     0.07700
H470        H  0.28711343  0.62720321  0.95029680     0.11400
H471        H  0.21376826  0.57172660  0.00335925     0.11100
H472        H  0.24806240  0.59444421  0.04136396     0.07600
C473        C  0.18903585  0.64070655  0.54994723    -0.11500
C474        C  0.19079717  0.60491925  0.54060694     0.05700
C475        C  0.16772052  0.57867447  0.55167318    -0.10200
C476        C  0.14189565  0.58850178  0.57056685    -0.11900
C477        C  0.13918816  0.62460243  0.57917176    -0.01700
C478        C  0.16371318  0.65039268  0.56925114    -0.10800
C479        C  0.21450172  0.59564192  0.51793325     0.05700
H480        H  0.16839219  0.55096841  0.54468829     0.07600
H481        H  0.12320034  0.56810626  0.57779614     0.11100
H482        H  0.16193412  0.67846391  0.57526277     0.11400
H483        H  0.20667342  0.66139289  0.54177769     0.07700
C484        C  0.21359510  0.61689095  0.49478873    -0.11500
C485        C  0.23435936  0.60746312  0.47275542    -0.10800
C486        C  0.25698331  0.57689991  0.47351953    -0.01700
C487        C  0.25837194  0.55591697  0.49683169    -0.11900
C488        C  0.23697999  0.56496817  0.51874213    -0.10300
H489        H  0.19615222  0.64041068  0.49354794     0.07700
H490        H  0.23282679  0.62422108  0.45511899     0.11400
H491        H  0.27548651  0.53215180  0.49794644     0.11100
H492        H  0.23809132  0.54815531  0.53636455     0.07600
C493        C  0.09957629  0.46522081  0.35454759    -0.11500
C494        C  0.13225330  0.44559808  0.35485557     0.05700
C495        C  0.13047719  0.40745942  0.35416537    -0.10200
C496        C  0.09727098  0.38951545  0.35636565    -0.11900
C497        C  0.06503883  0.40924834  0.35830534    -0.01700
C498        C  0.06624696  0.44714445  0.35606120    -0.10800
C499        C  0.16757082  0.46434120  0.35956878     0.05700
H500        H  0.15492719  0.39137271  0.35358530     0.07600
H501        H  0.09693371  0.36026977  0.35833825     0.11100
H502        H  0.04172402  0.46291646  0.35818335     0.11400
H503        H  0.09970699  0.49452181  0.35532416     0.07700
C504        C  0.17461149  0.49942211  0.34963486    -0.11500
C505        C  0.20629782  0.51806869  0.35683425    -0.10800
C506        C  0.23143023  0.50207752  0.37422883    -0.01700
C507        C  0.22497103  0.46664087  0.38334087    -0.11900
C508        C  0.19355990  0.44811694  0.37619861    -0.10300
H509        H  0.15539529  0.51270443  0.33664084     0.07700
H510        H  0.21046662  0.54541739  0.34958498     0.11400
H511        H  0.24378682  0.45348150  0.39675022     0.11100
H512        H  0.18898648  0.42160821  0.38482391     0.07600
C513        C  0.37234913  0.66953245  0.22745856    -0.11500
C514        C  0.39241071  0.64674374  0.24440249     0.05700
C515        C  0.42730426  0.63615386  0.23653840    -0.10200
C516        C  0.44095859  0.64619424  0.21178238    -0.11900
C517        C  0.42028274  0.66744118  0.19426775    -0.01700
C518        C  0.38619445  0.67984434  0.20262169    -0.10800
C519        C  0.37697824  0.63264708  0.26973111     0.05700
H520        H  0.44389473  0.61945566  0.24939345     0.07600
H521        H  0.46748207  0.63653856  0.20606053     0.11100
H522        H  0.36955330  0.69605628  0.18947703     0.11400
H523        H  0.34538239  0.67814047  0.23292641     0.07700
C524        C  0.35713342  0.65504554  0.28690695    -0.11500
C525        C  0.34536027  0.64194118  0.31162124    -0.10800
C526        C  0.35337295  0.60628138  0.31961453    -0.01700
C527        C  0.37170736  0.58351584  0.30192249    -0.11900
C528        C  0.38315647  0.59644558  0.27727669    -0.10300
H529        H  0.35197984  0.68306558  0.28169852     0.07700
H530        H  0.33157325  0.66018838  0.32497497     0.11400
H531        H  0.37800064  0.55581936  0.30743130     0.11100
H532        H  0.39747034  0.57817118  0.26424431     0.07600
C533        C  0.56024876  0.53849803  0.49957695    -0.11500
C534        C  0.53123852  0.51355932  0.49970206     0.05700
C535        C  0.53463091  0.48158240  0.51469622    -0.10200
C536        C  0.56498464  0.47569019  0.53036842    -0.11900
C537        C  0.59261734  0.50159956  0.53164343    -0.01700
C538        C  0.59077690  0.53258203  0.51557336    -0.10800
C539        C  0.49654398  0.52142188  0.48586324     0.05700
H540        H  0.51283473  0.46200582  0.51579294     0.07600
H541        H  0.56573886  0.45194898  0.54302110     0.11100
H542        H  0.61161523  0.55321342  0.51674671     0.11400
H543        H  0.55882121  0.56309425  0.48787798     0.07700
C544        C  0.48292517  0.55698062  0.48437677    -0.11500
C545        C  0.44968311  0.56392164  0.47210352    -0.10800
C546        C  0.42907467  0.53535665  0.46163264    -0.01700
C547        C  0.44218505  0.49982363  0.46362543    -0.11900
C548        C  0.47570899  0.49298644  0.47526067    -0.10300
H549        H  0.49777912  0.57945825  0.49282925     0.07700
H550        H  0.44025135  0.59162686  0.47052402     0.11400
H551        H  0.42733289  0.47743274  0.45499432     0.11100
H552        H  0.48555166  0.46538360  0.47546014     0.07600
C553        C  0.79807928  0.44959286  0.50554661    -0.11500
C554        C  0.79033937  0.41801998  0.49094816     0.05700
C555        C  0.76126253  0.39604230  0.49929749    -0.10200
C556        C  0.74039809  0.40561497  0.52137265    -0.11900
C557        C  0.74767129  0.43770805  0.53532164    -0.01700
C558        C  0.77677918  0.45950752  0.52720499    -0.10800
C559        C  0.81275233  0.40827033  0.46733682     0.05700
H560        H  0.75412057  0.37175372  0.48852950     0.07600
H561        H  0.71802696  0.38832898  0.52717512     0.11100
H562        H  0.78339754  0.48407347  0.53785305     0.11400
H563        H  0.82088858  0.46666641  0.50044465     0.07700
C564        C  0.82847448  0.43559629  0.45151541    -0.11500
C565        C  0.85242526  0.42689700  0.43112028    -0.10800
C566        C  0.86056874  0.39062742  0.42546410    -0.01700
C567        C  0.84329054  0.36311129  0.44003143    -0.11900
C568        C  0.81986446  0.37181887  0.46089439    -0.10300
H569        H  0.82288004  0.46391727  0.45516900     0.07700
H570        H  0.86541177  0.44863489  0.42019495     0.11400
H571        H  0.84968597  0.33492229  0.43642175     0.11100
H572        H  0.80871700  0.34994393  0.47269369     0.07600
C573        C  0.83670617  0.51783586  0.63837759    -0.11500
C574        C  0.83437104  0.55408607  0.64688202     0.05700
C575        C  0.79995670  0.56902665  0.65123618    -0.10200
C576        C  0.76877885  0.54961468  0.64473849    -0.11900
C577        C  0.77119198  0.51458921  0.63405059    -0.01700
C578        C  0.80534223  0.49818825  0.63211994    -0.10800
C579        C  0.86710468  0.57768943  0.64751754     0.05700
H580        H  0.79714428  0.59649143  0.65841428     0.07600
H581        H  0.74275458  0.56276587  0.64684514     0.11100
H582        H  0.80799807  0.47125620  0.62390696     0.11400
H583        H  0.86277123  0.50551055  0.63468224     0.07700
C584        C  0.90091614  0.56432286  0.65585592    -0.11500
C585        C  0.93239707  0.58499897  0.65220851    -0.10800
C586        C  0.93063553  0.61918494  0.63987197    -0.01700
C587        C  0.89667369  0.63341571  0.63309807    -0.11900
C588        C  0.86530333  0.61300601  0.63695021    -0.10300
H589        H  0.90318629  0.53739054  0.66427835     0.07700
H590        H  0.95831394  0.57320191  0.65734706     0.11400
H591        H  0.89456116  0.65960419  0.62344027     0.11100
H592        H  0.83989804  0.62407409  0.62993731     0.07600
C593        C  0.54072207  0.49891817  0.98304191    -0.11500
C594        C  0.50959374  0.49948254  0.99901389     0.05700
C595        C  0.48513176  0.47031435  0.99754309    -0.10200
C596        C  0.49110876  0.44185453  0.97988389    -0.11900
C597        C  0.52177267  0.44189804  0.96345936    -0.01700
C598        C  0.54683436  0.47039591  0.96560220    -0.10800
C599        C  0.50260568  0.53071514  0.01675715     0.05700
H600        H  0.46128159  0.46952340  0.00995578     0.07600
H601        H  0.47135872  0.42020659  0.97873115     0.11100
H602        H  0.57070490  0.47130113  0.95318675     0.11400
H603        H  0.55990478  0.52110389  0.98335132     0.07700
C604        C  0.53151137  0.54820099  0.02957675    -0.11500
C605        C  0.52530463  0.57805086  0.04574424    -0.10800
C606        C  0.48999828  0.59070401  0.04992355    -0.01700
C607        C  0.46094208  0.57325985  0.03736550    -0.11900
C608        C  0.46722205  0.54372504  0.02070875    -0.10300
H609        H  0.55897266  0.53848514  0.02749278     0.07700
H610        H  0.54811667  0.59056287  0.05566447     0.11400
H611        H  0.43346234  0.58254362  0.04035913     0.11100
H612        H  0.44440967  0.53130518  0.01077309     0.07600
C613        C  0.65842320  0.40638749  0.72863573    -0.11500
C614        C  0.62217020  0.39874582  0.73535499     0.05700
C615        C  0.59576580  0.40071797  0.71536656    -0.10200
C616        C  0.60486060  0.41120793  0.68970238    -0.11900
C617        C  0.64080285  0.41963824  0.68295455    -0.01700
C618        C  0.66767328  0.41670341  0.70262749    -0.10800
C619        C  0.61103896  0.38989619  0.76306048     0.05700
H620        H  0.56779130  0.39408230  0.71951463     0.07600
H621        H  0.58343878  0.41267015  0.67507248     0.11100
H622        H  0.69562235  0.42294113  0.69804192     0.11400
H623        H  0.67943279  0.40530208  0.74358361     0.07700
C624        C  0.63247210  0.36802988  0.77975611    -0.11500
C625        C  0.62088003  0.35946231  0.80554307    -0.10800
C626        C  0.58776887  0.37282161  0.81516285    -0.01700
C627        C  0.56650760  0.39462335  0.79845426    -0.11900
C628        C  0.57799233  0.40311241  0.77286575    -0.10300
H629        H  0.65794524  0.35720427  0.77279922     0.07700
H630        H  0.63804912  0.34289771  0.81806907     0.11400
H631        H  0.54098954  0.40555694  0.80526208     0.11100
H632        H  0.56108857  0.42064702  0.76088326     0.07600
C633        C  0.68579000  0.43666551  0.94733227    -0.11500
C634        C  0.70009852  0.41309433  0.96661746     0.05700
C635        C  0.69227043  0.37593333  0.96492799    -0.10200
C636        C  0.66911356  0.36282865  0.94526220    -0.11900
C637        C  0.65289362  0.38660402  0.92689208    -0.01700
C638        C  0.66222649  0.42358480  0.92771972    -0.10800
C639        C  0.72071229  0.42722583  0.98968070     0.05700
H640        H  0.70328255  0.35713040  0.97935142     0.07600
H641        H  0.66257040  0.33419126  0.94528851     0.11100
H642        H  0.65001053  0.44265277  0.91404135     0.11400
H643        H  0.69130434  0.46547761  0.94827938     0.07700
C644        C  0.74963717  0.45160848  0.98640199    -0.11500
C645        C  0.76903177  0.46419314  0.00848411    -0.10800
C646        C  0.75951683  0.45297634  0.03425039    -0.01700
C647        C  0.73015666  0.42904679  0.03739702    -0.11900
C648        C  0.71112238  0.41627007  0.01541077    -0.10300
H649        H  0.75759065  0.46038421  0.96675863     0.07700
H650        H  0.79161124  0.48246514  0.00537044     0.11400
H651        H  0.72199882  0.41984843  0.05689653     0.11100
H652        H  0.68860198  0.39790782  0.01853989     0.07600
C653        C  0.40319489  0.46216282  0.85767594    -0.11500
C654        C  0.37070893  0.44987998  0.86924761     0.05700
C655        C  0.37135106  0.41719663  0.88376155    -0.10200
C656        C  0.40358613  0.39810762  0.88739368    -0.11900
C657        C  0.43627429  0.41145696  0.87708520    -0.01700
C658        C  0.43568965  0.44335976  0.86179042    -0.10800
C659        C  0.33702992  0.47228111  0.86841180     0.05700
H660        H  0.34729902  0.40711224  0.89354492     0.07600
H661        H  0.40321338  0.37387002  0.89958362     0.11100
H662        H  0.46048711  0.45418085  0.85350481     0.11400
H663        H  0.40373381  0.48679711  0.84595490     0.07700
C664        C  0.33889046  0.51042318  0.86960859    -0.11500
C665        C  0.30755956  0.53111074  0.87334995    -0.10800
C666        C  0.27392177  0.51404956  0.87637174    -0.01700
C667        C  0.27158479  0.47631973  0.87372152    -0.11900
C668        C  0.30268489  0.45570640  0.86931544    -0.10300
H669        H  0.36472191  0.52426106  0.86938743     0.07700
H670        H  0.30997104  0.56015403  0.87587791     0.11400
H671        H  0.24581023  0.46267179  0.87611246     0.11100
H672        H  0.29990890  0.42658113  0.86773883     0.07600
C673        C  0.54586951  0.27760273  0.50729329    -0.11500
C674        C  0.58211042  0.28767061  0.51192697     0.05700
C675        C  0.60874281  0.27582725  0.49411639    -0.10200
C676        C  0.59939898  0.25498850  0.47208064    -0.11900
C677        C  0.56311964  0.24552202  0.46714517    -0.01700
C678        C  0.53647270  0.25683052  0.48513388    -0.10800
C679        C  0.59194727  0.31243633  0.53408647     0.05700
H680        H  0.63677520  0.28363340  0.49670130     0.07600
H681        H  0.62065157  0.24688578  0.45859642     0.11100
H682        H  0.50830488  0.24996207  0.48195046     0.11400
H683        H  0.52468413  0.28593907  0.52074472     0.07700
C684        C  0.56931228  0.34165711  0.54043642    -0.11500
C685        C  0.58020502  0.36750445  0.55891246    -0.10800
C686        C  0.61416291  0.36508597  0.57144950    -0.01700
C687        C  0.63605766  0.33486786  0.56627598    -0.11900
C688        C  0.62504657  0.30879178  0.54777203    -0.10300
H689        H  0.54385646  0.34563514  0.53018619     0.07700
H690        H  0.56248208  0.39026391  0.56258985     0.11400
H691        H  0.66235068  0.33223308  0.57558849     0.11100
H692        H  0.64286478  0.28623460  0.54369279     0.07600
C693        C  0.48686873  0.34741992  0.36547112    -0.11500
C694        C  0.45035549  0.35157457  0.37298772     0.05700
C695        C  0.43131560  0.32063985  0.38156165    -0.10200
C696        C  0.44828429  0.28690979  0.38311379    -0.11900
C697        C  0.48506747  0.28302535  0.37663422    -0.01700
C698        C  0.50409753  0.31360638  0.36747865    -0.10800
C699        C  0.43253567  0.38802343  0.37343376     0.05700
H700        H  0.40354404  0.32257613  0.38816377     0.07600
H701        H  0.43284842  0.26411275  0.39062754     0.11100
H702        H  0.53246161  0.31154843  0.36234940     0.11400
H703        H  0.50234995  0.37037832  0.35833707     0.07700
C704        C  0.45233680  0.41936203  0.38004137    -0.11500
C705        C  0.43495328  0.45278810  0.38314313    -0.10800
C706        C  0.39724635  0.45572388  0.38006738    -0.01700
C707        C  0.37757403  0.42482053  0.37256331    -0.11900
C708        C  0.39501540  0.39152895  0.36903324    -0.10300
H709        H  0.48107325  0.41787937  0.38403590     0.07700
H710        H  0.45086040  0.47597513  0.38927665     0.11400
H711        H  0.34850797  0.42619079  0.36996129     0.11100
H712        H  0.37885379  0.36837156  0.36327614     0.07600
C713        C  0.55854648  0.92295296  0.13377040    -0.11500
C714        C  0.57937792  0.89235136  0.14041919     0.05700
C715        C  0.61704684  0.89643861  0.14313266    -0.10200
C716        C  0.63373735  0.92962725  0.13762240    -0.11900
C717        C  0.61314076  0.95966246  0.12950525    -0.01700
C718        C  0.57525064  0.95629653  0.12844310    -0.10800
C719        C  0.56259929  0.85564460  0.14131926     0.05700
H720        H  0.63380839  0.87356764  0.14865812     0.07600
H721        H  0.66294392  0.93143681  0.13887959     0.11100
H722        H  0.55863459  0.97890587  0.12212515     0.11400
H723        H  0.52953986  0.92066296  0.13119995     0.07700
C724        C  0.52799403  0.84982051  0.15223287    -0.11500
C725        C  0.51066527  0.81612121  0.14956021    -0.10800
C726        C  0.52753973  0.78790035  0.13566773    -0.01700
C727        C  0.56287524  0.79320183  0.12615060    -0.11900
C728        C  0.58015202  0.82655593  0.12892965    -0.10300
H729        H  0.51391699  0.87163737  0.16210775     0.07700
H730        H  0.48335108  0.81286597  0.15694014     0.11400
H731        H  0.57661932  0.77197077  0.11535433     0.11100
H732        H  0.60653203  0.83010480  0.11996786     0.07600
C733        C  0.67100206  0.14281297  0.22615858    -0.11500
C734        C  0.63535116  0.14034914  0.23569547     0.05700
C735        C  0.60893390  0.12349303  0.22005921    -0.10200
C736        C  0.61794453  0.10893094  0.19546552    -0.11900
C737        C  0.65348017  0.11150736  0.18565124    -0.01700
C738        C  0.67989231  0.12900321  0.20110112    -0.10800
C739        C  0.62568654  0.15264747  0.26264812     0.05700
H740        H  0.58142186  0.12086584  0.22718889     0.07600
H741        H  0.59684624  0.09599871  0.18393751     0.11100
H742        H  0.70740335  0.13152508  0.19398157     0.11400
H743        H  0.69183928  0.15549473  0.23806993     0.07700
C744        C  0.64200376  0.13628896  0.28473504    -0.11500
C745        C  0.62853941  0.14260666  0.31015605    -0.10800
C746        C  0.59911946  0.16610587  0.31403519    -0.01700
C747        C  0.58429486  0.18438362  0.29214466    -0.11900
C748        C  0.59715137  0.17725314  0.26654534    -0.10300
H749        H  0.66377404  0.11701226  0.28216188     0.07700
H750        H  0.64048180  0.12829909  0.32680385     0.11400
H751        H  0.56150499  0.20243600  0.29467285     0.11100
H752        H  0.58410401  0.19001345  0.24968709     0.07600
C753        C  0.60934858  0.22885679  0.98579001    -0.11500
C754        C  0.60071325  0.23851020  0.01191464     0.05700
C755        C  0.57640299  0.26717896  0.01616084    -0.10200
C756        C  0.56145374  0.28612422  0.99466791    -0.11900
C757        C  0.57033903  0.27652554  0.96854918    -0.01700
C758        C  0.59433590  0.24758001  0.96439055    -0.10800
C759        C  0.61661428  0.21799319  0.03445488     0.05700
H760        H  0.56938762  0.27526703  0.03609854     0.07600
H761        H  0.54316099  0.30838987  0.99849852     0.11100
H762        H  0.60176197  0.23943696  0.94453520     0.11400
H763        H  0.62744874  0.20645709  0.98187046     0.07700
C764        C  0.59497083  0.20682512  0.05585928    -0.11500
C765        C  0.60907243  0.18403085  0.07555342    -0.10800
C766        C  0.64517636  0.17214435  0.07431707    -0.01700
C767        C  0.66729059  0.18492943  0.05363131    -0.11900
C768        C  0.65314909  0.20752430  0.03391208    -0.10300
H769        H  0.56666043  0.21425458  0.05669170     0.07700
H770        H  0.59123669  0.17442232  0.09108211     0.11400
H771        H  0.69514687  0.17614742  0.05196665     0.11100
H772        H  0.67061578  0.21615497  0.01785595     0.07600
C773        C  0.38292950  0.76724193  0.50559809    -0.11500
C774        C  0.40496123  0.74272160  0.49166905     0.05700
C775        C  0.44086966  0.73778739  0.50042184    -0.10200
C776        C  0.45412118  0.75633361  0.52262213    -0.11900
C777        C  0.43168070  0.77991447  0.53691465    -0.01700
C778        C  0.39601588  0.78533431  0.52800291    -0.10800
C779        C  0.38999767  0.72075731  0.46924868     0.05700
H780        H  0.45854896  0.71869173  0.49065660     0.07600
H781        H  0.48166491  0.75145120  0.52902347     0.11100
H782        H  0.37812643  0.80369165  0.53836381     0.11400
H783        H  0.35543837  0.77246420  0.49927647     0.07700
C784        C  0.35383124  0.70875436  0.46973515    -0.11500
C785        C  0.34081505  0.68473300  0.45059280    -0.10800
C786        C  0.36364756  0.67160316  0.43053299    -0.01700
C787        C  0.39916990  0.68509494  0.42904195    -0.11900
C788        C  0.41212690  0.70952845  0.44808004    -0.10300
H789        H  0.33591911  0.71627871  0.48573175     0.07700
H790        H  0.31331598  0.67486594  0.45245948     0.11400
H791        H  0.41743325  0.67567459  0.41378899     0.11100
H792        H  0.43980756  0.71886937  0.44656515     0.07600
C793        C  0.56842033  0.70793179  0.64455351    -0.11500
C794        C  0.55184800  0.67462797  0.63867272     0.05700
C795        C  0.51534137  0.67453523  0.63062698    -0.10200
C796        C  0.49659409  0.70719505  0.62696286    -0.11900
C797        C  0.51411048  0.74050711  0.63110850    -0.01700
C798        C  0.54984352  0.74045825  0.64069880    -0.10800
C799        C  0.57367911  0.64077395  0.63801703     0.05700
H800        H  0.50191888  0.64935702  0.62564366     0.07600
H801        H  0.46921850  0.70643192  0.61929130     0.11100
H802        H  0.56396644  0.76573244  0.64424954     0.11400
H803        H  0.59627421  0.70890341  0.65121352     0.07700
C804        C  0.60845072  0.64131316  0.62674046    -0.11500
C805        C  0.62734269  0.60914133  0.62252569    -0.10800
C806        C  0.61210133  0.57562504  0.62966212    -0.01700
C807        C  0.57836759  0.57509513  0.64247791    -0.11900
C808        C  0.55919429  0.60738346  0.64644636    -0.10300
H809        H  0.62027538  0.66645237  0.61973611     0.07700
H810        H  0.65326680  0.61035860  0.61256398     0.11400
H811        H  0.56584778  0.54959523  0.64797500     0.11100
H812        H  0.53261740  0.60615401  0.65540443     0.07600
C813        C  0.48561247  0.95918604  0.50129782    -0.11500
C814        C  0.50231334  0.99235185  0.50780719     0.05700
C815        C  0.52040920  0.99553652  0.53211341    -0.10200
C816        C  0.52072147  0.96670254  0.54994140    -0.11900
C817        C  0.50317920  0.93398957  0.54377855    -0.01700
C818        C  0.48623292  0.93009894  0.51912218    -0.10800
C819        C  0.50192567  0.02320416  0.48901403     0.05700
H820        H  0.53433337  0.02033915  0.53737559     0.07600
H821        H  0.53413986  0.97022866  0.56887156     0.11100
H822        H  0.47206342  0.90529915  0.51418972     0.11400
H823        H  0.47123551  0.95604460  0.48273248     0.07700
C824        C  0.50662512  0.01676929  0.46193460    -0.11500
C825        C  0.50820503  0.04548039  0.44413389    -0.10800
C826        C  0.50541125  0.08150743  0.45292420    -0.01700
C827        C  0.50006664  0.08818478  0.47997716    -0.11900
C828        C  0.49825144  0.05918107  0.49791592    -0.10300
H829        H  0.51016247  0.98950547  0.45450983     0.07700
H830        H  0.51244052  0.03929159  0.42340963     0.11400
H831        H  0.49772146  0.11565743  0.48725295     0.11100
H832        H  0.49411169  0.06486780  0.51872939     0.07600
C833        C  0.36592916  0.82106674  0.97085714    -0.11500
C834        C  0.40279263  0.81195678  0.97092504     0.05700
C835        C  0.42488539  0.82459066  0.95021765    -0.10200
C836        C  0.41090546  0.84826684  0.93094210    -0.11900
C837        C  0.37448070  0.85931284  0.93191373    -0.01700
C838        C  0.35187806  0.84427981  0.95150113    -0.10800
C839        C  0.41852905  0.79270116  0.99408764     0.05700
H840        H  0.45342535  0.81795732  0.94988752     0.07600
H841        H  0.42902380  0.85934640  0.91613985     0.11100
H842        H  0.32369159  0.85207930  0.95285108     0.11400
H843        H  0.34827845  0.81132440  0.98645528     0.07700
C844        C  0.41152104  0.80559000  0.01969404    -0.11500
C845        C  0.42587026  0.78807194  0.04188945    -0.10800
C846        C  0.44746548  0.75698148  0.03910158    -0.01700
C847        C  0.45478070  0.74416105  0.01341226    -0.11900
C848        C  0.44063969  0.76205328  0.99106751    -0.10300
H849        H  0.39501145  0.82949929  0.02253145     0.07700
H850        H  0.41967496  0.79876488  0.06130516     0.11400
H851        H  0.47114515  0.72016412  0.01059488     0.11100
H852        H  0.44640179  0.75164371  0.97149785     0.07600
C853        C  0.48251918  0.97996063  0.98997970    -0.11500
C854        C  0.49125291  0.01649551  0.99476658     0.05700
C855        C  0.46758724  0.04366216  0.98572493    -0.10200
C856        C  0.43637691  0.03461501  0.97181896    -0.11900
C857        C  0.42865175  0.99829752  0.96600252    -0.01700
C858        C  0.45168929  0.97096706  0.97544076    -0.10800
C859        C  0.52465236  0.02629258  0.00934218     0.05700
H860        H  0.47366063  0.07207584  0.98856443     0.07600
H861        H  0.41935037  0.05625050  0.96435448     0.11100
H862        H  0.44620456  0.94273093  0.97117087     0.11400
H863        H  0.49954317  0.95828309  0.99730398     0.07700
C864        C  0.52500667  0.05659201  0.02611061    -0.11500
C865        C  0.55546216  0.06461581  0.04116450    -0.10800
C866        C  0.58590129  0.04198408  0.04035552    -0.01700
C867        C  0.58636672  0.01261503  0.02281512    -0.11900
C868        C  0.55610812  0.00505116  0.00721476    -0.10300
H869        H  0.50125320  0.07331011  0.02860478     0.07700
H870        H  0.55429165  0.08739985  0.05461055     0.11400
H871        H  0.60969069  0.99496006  0.02168621     0.11100
H872        H  0.55719068  0.98220234  0.99386126     0.07600
C873        C  0.35627174  0.87947916  0.78468762    -0.11500
C874        C  0.38423428  0.89649850  0.77039623     0.05700
C875        C  0.40244780  0.92585078  0.78204708    -0.10200
C876        C  0.39264197  0.93847747  0.80701247    -0.11900
C877        C  0.36434942  0.92207378  0.82128625    -0.01700
C878        C  0.34632855  0.89223191  0.80991114    -0.10800
C879        C  0.39355692  0.88596670  0.74276595     0.05700
H880        H  0.42442565  0.93922696  0.77171961     0.07600
H881        H  0.40750965  0.96116747  0.81517608     0.11100
H882        H  0.32467577  0.87873817  0.82050109     0.11400
H883        H  0.34163885  0.85692182  0.77612036     0.07700
C884        C  0.39969468  0.84972706  0.73525781    -0.11500
C885        C  0.41163093  0.84150556  0.70940682    -0.10800
C886        C  0.41737339  0.86943613  0.69075081    -0.01700
C887        C  0.40990628  0.90532597  0.69832176    -0.11900
C888        C  0.39818165  0.91338634  0.72378081    -0.10300
H889        H  0.39630543  0.82802135  0.74954452     0.07700
H890        H  0.41683547  0.81356404  0.70416835     0.11400
H891        H  0.41336368  0.92764936  0.68456130     0.11100
H892        H  0.39298578  0.94144060  0.72873303     0.07600
C893        C  0.39998984  0.14307523  0.88663508    -0.11500
C894        C  0.43264074  0.14477479  0.87230018     0.05700
C895        C  0.44678957  0.11223730  0.86206800    -0.10200
C896        C  0.42940580  0.07897898  0.86679461    -0.11900
C897        C  0.39703689  0.07756072  0.88131865    -0.01700
C898        C  0.38228957  0.11005933  0.89081018    -0.10800
C899        C  0.45260178  0.18000139  0.86963983     0.05700
H900        H  0.47150751  0.11232236  0.85061266     0.07600
H901        H  0.44142043  0.05433293  0.85927624     0.11100
H902        H  0.35776866  0.10981368  0.90254424     0.11400
H903        H  0.38858379  0.16707094  0.89558048     0.07700
C904        C  0.43370356  0.21316129  0.86915121    -0.11500
C905        C  0.45219573  0.24613527  0.87121607    -0.10800
C906        C  0.49005650  0.24689818  0.87283288    -0.01700
C907        C  0.50927209  0.21425576  0.87119645    -0.11900
C908        C  0.49076036  0.18110692  0.86984797    -0.10300
H909        H  0.40445969  0.21371083  0.86818397     0.07700
H910        H  0.43684712  0.27103977  0.87266826     0.11400
H911        H  0.53847100  0.21419571  0.87308159     0.11100
H912        H  0.50642703  0.15638264  0.87062453     0.07600
C913        C  0.08826552  0.82262827  0.45114530    -0.11500
C914        C  0.11038006  0.80973965  0.47186833     0.05700
C915        C  0.14693645  0.82053595  0.47239420    -0.10200
C916        C  0.16065885  0.84447248  0.45333194    -0.11900
C917        C  0.13814548  0.85851044  0.43331356    -0.01700
C918        C  0.10194860  0.84680346  0.43216772    -0.10800
C919        C  0.09520386  0.78657113  0.49353262     0.05700
H920        H  0.16474305  0.81175602  0.48822295     0.07600
H921        H  0.18853906  0.85321401  0.45500381     0.11100
H922        H  0.08381386  0.85717953  0.41704987     0.11400
H923        H  0.06021554  0.81443633  0.44976039     0.07700
C924        C  0.05976845  0.79206268  0.50299073    -0.11500
C925        C  0.04649454  0.77199197  0.52453341    -0.10800
C926        C  0.06851845  0.74634890  0.53734987    -0.01700
C927        C  0.10355309  0.74021079  0.52754978    -0.11900
C928        C  0.11662164  0.75984796  0.50583067    -0.10300
H929        H  0.04261111  0.81273073  0.49434592     0.07700
H930        H  0.01945188  0.77740782  0.53171228     0.11400
H931        H  0.12103325  0.72025482  0.53678656     0.11100
H932        H  0.14366021  0.75417561  0.49878739     0.07600
C933        C  0.05526947  0.10980132  0.37799247    -0.11500
C934        C  0.07557917  0.14049363  0.37060183     0.05700
C935        C  0.11277905  0.13623309  0.36557527    -0.10200
C936        C  0.12956799  0.10260735  0.36920546    -0.11900
C937        C  0.10947617  0.07234344  0.37762309    -0.01700
C938        C  0.07197997  0.07611347  0.38132904    -0.10800
C939        C  0.05860058  0.17712047  0.37038789     0.05700
H940        H  0.12914359  0.15911317  0.35941422     0.07600
H941        H  0.15848864  0.10053642  0.36614705     0.11100
H942        H  0.05580353  0.05344188  0.38818221     0.11400
H943        H  0.02673353  0.11209770  0.38249570     0.07700
C944        C  0.02241489  0.18192213  0.36237166    -0.11500
C945        C  0.00519744  0.21539722  0.36555566    -0.10800
C946        C  0.02386631  0.24488816  0.37664705    -0.01700
C947        C  0.06062970  0.24067985  0.38316503    -0.11900
C948        C  0.07770570  0.20720175  0.38022290    -0.10300
H949        H  0.00710239  0.15954321  0.35422013     0.07700
H950        H  0.97694467  0.21784325  0.36011767     0.11400
H951        H  0.07582998  0.26278599  0.39184230     0.11100
H952        H  0.10540597  0.20451470  0.38694528     0.07600
C953        C  0.31263684  0.88722894  0.55201353    -0.11500
C954        C  0.31420474  0.92147454  0.53979723     0.05700
C955        C  0.34072481  0.94628421  0.54790595    -0.10200
C956        C  0.36631260  0.93648080  0.56704792    -0.11900
C957        C  0.36554686  0.90183994  0.57882256    -0.01700
C958        C  0.33787377  0.87760504  0.57157067    -0.10800
C959        C  0.29012670  0.93055412  0.51727417     0.05700
H960        H  0.34262019  0.97269162  0.53855313     0.07600
H961        H  0.38744570  0.95566795  0.57201583     0.11100
H962        H  0.33685516  0.85058675  0.57999392     0.11400
H963        H  0.29236690  0.86768723  0.54597937     0.07700
C964        C  0.29016051  0.90886277  0.49450531    -0.11500
C965        C  0.26976907  0.91881350  0.47228256    -0.10800
C966        C  0.24838536  0.95029921  0.47257987    -0.01700
C967        C  0.24764322  0.97150937  0.49565431    -0.11900
C968        C  0.26872667  0.96196170  0.51769366    -0.10300
H969        H  0.30676057  0.88472181  0.49368483     0.07700
H970        H  0.27067537  0.90180309  0.45485489     0.11400
H971        H  0.23141115  0.99589330  0.49644193     0.11100
H972        H  0.26843689  0.97909766  0.53506382     0.07600
C973        C  0.37521204  0.11729470  0.34986721    -0.11500
C974        C  0.37326229  0.07916597  0.35099874     0.05700
C975        C  0.40588616  0.05949587  0.35196218    -0.10200
C976        C  0.43919341  0.07756542  0.35436127    -0.11900
C977        C  0.44042470  0.11553102  0.35611493    -0.01700
C978        C  0.40832460  0.13523270  0.35289644    -0.10800
C979        C  0.33767031  0.06068627  0.35542085     0.05700
H980        H  0.40556257  0.03019687  0.35309754     0.07600
H981        H  0.46354585  0.06177884  0.35742985     0.11100
H982        H  0.40859777  0.16450562  0.35443777     0.11400
H983        H  0.35082625  0.13339635  0.34839856     0.07700
C984        C  0.31190139  0.07708388  0.37194194    -0.11500
C985        C  0.28049076  0.05876044  0.37932899    -0.10800
C986        C  0.27369764  0.02325807  0.37062796    -0.01700
C987        C  0.29838996  0.00720269  0.35305638    -0.11900
C988        C  0.33019792  0.02569392  0.34561841    -0.10300
H989        H  0.31675009  0.10354726  0.38041469     0.07700
H990        H  0.26202269  0.07211269  0.39277048     0.11400
H991        H  0.29392597  0.97988000  0.34601297     0.11100
H992        H  0.34928975  0.01231262  0.33270299     0.07600
C993        C  0.14475836  0.72990688  0.95865922    -0.11500
C994        C  0.10835302  0.72922182  0.96694881     0.05700
C995        C  0.08450249  0.70495518  0.95434570    -0.10200
C996        C  0.09717338  0.68061801  0.93526058    -0.11900
C997        C  0.13406428  0.67957457  0.92856489    -0.01700
C998        C  0.15753082  0.70511261  0.93995828    -0.10800
C999        C  0.09618263  0.75123463  0.99015147     0.05700
H1000       H  0.05643592  0.70321103  0.96027100     0.07600
H1001       H  0.07847578  0.66097602  0.92705893     0.11100
H1002       H  0.18606168  0.70509866  0.93509024     0.11400
H1003       H  0.16378087  0.74886049  0.96725418     0.07700
C1004       C  0.11987256  0.75733639  0.01154667    -0.11500
C1005       C  0.10826882  0.77562937  0.03416779    -0.10800
C1006       C  0.07244693  0.78802976  0.03634791    -0.01700
C1007       C  0.04874026  0.78251460  0.01490418    -0.11900
C1008       C  0.06050981  0.76447514  0.99203160    -0.10300
H1009       H  0.14722575  0.74695242  0.01129466     0.07700
H1010       H  0.12731291  0.77929124  0.05028388     0.11400
H1011       H  0.02107340  0.79201819  0.01583223     0.11100
H1012       H  0.04157646  0.76081802  0.97586979     0.07600
C1013       C  0.95448059  0.61247365  0.12632718    -0.11500
C1014       C  0.93561701  0.64261796  0.13613307     0.05700
C1015       C  0.89897875  0.63830338  0.14319449    -0.10200
C1016       C  0.88118091  0.60527051  0.13910583    -0.11900
C1017       C  0.89985347  0.57568117  0.12840054    -0.01700
C1018       C  0.93689155  0.57938145  0.12269776    -0.10800
C1019       C  0.95318930  0.67897391  0.13636418     0.05700
H1020       H  0.88375979  0.66073997  0.15124678     0.07600
H1021       H  0.85265059  0.60310873  0.14373759     0.11100
H1022       H  0.95190814  0.55721160  0.11402120     0.11400
H1023       H  0.98241734  0.61483145  0.12012263     0.07700
C1024       C  0.99051365  0.68277856  0.14137722    -0.11500
C1025       C  0.00785075  0.71614288  0.13751897    -0.10800
C1026       C  0.98814642  0.74647707  0.12883936    -0.01700
C1027       C  0.95050582  0.74319070  0.12547387    -0.11900
C1028       C  0.93330521  0.70986781  0.12902786    -0.10300
H1029       H  0.00655070  0.65972668  0.14760200     0.07700
H1030       H  0.03681690  0.71789095  0.14053984     0.11400
H1031       H  0.93443355  0.76601608  0.11881924     0.11100
H1032       H  0.90469427  0.70802953  0.12460477     0.07600
C1033       C  0.81346204  0.94804865  0.12928105    -0.11500
C1034       C  0.83716633  0.96074440  0.14897965     0.05700
C1035       C  0.82882819  0.99370072  0.16166331    -0.10200
C1036       C  0.79838738  0.01407126  0.15392424    -0.11900
C1037       C  0.77588576  0.00187754  0.13329986    -0.01700
C1038       C  0.78334414  0.96815315  0.12167512    -0.10800
C1039       C  0.87212697  0.94134394  0.15354773     0.05700
H1040       H  0.84629725  0.00416919  0.17708168     0.07600
H1041       H  0.79325592  0.03985078  0.16336114     0.11100
H1042       H  0.76653455  0.95766375  0.10585203     0.11400
H1043       H  0.81910492  0.92336535  0.11855419     0.07700
C1044       C  0.87417512  0.90348315  0.15029098    -0.11500
C1045       C  0.90758006  0.88647976  0.14670181    -0.10800
C1046       C  0.93972722  0.90667281  0.14736192    -0.01700
C1047       C  0.93814179  0.94359477  0.15382107    -0.11900
C1048       C  0.90460960  0.96087733  0.15671020    -0.10300
H1049       H  0.84981623  0.88731253  0.14861294     0.07700
H1050       H  0.90818924  0.85795194  0.14172694     0.11400
H1051       H  0.96259648  0.95980336  0.15400619     0.11100
H1052       H  0.90424013  0.99000836  0.15908036     0.07600
C1053       C  0.09297238  0.84839377  0.23993537    -0.11500
C1054       C  0.12074777  0.87361341  0.24492031     0.05700
C1055       C  0.13758477  0.89107041  0.22352100    -0.10200
C1056       C  0.12542220  0.88520554  0.19772471    -0.11900
C1057       C  0.09676307  0.86113402  0.19272951    -0.01700
C1058       C  0.08137669  0.84177345  0.21390233    -0.10800
C1059       C  0.12956537  0.88515809  0.27221464     0.05700
H1060       H  0.15878647  0.91081595  0.22689816     0.07600
H1061       H  0.13779204  0.90031272  0.18163697     0.11100
H1062       H  0.05916395  0.82321185  0.21046731     0.11400
H1063       H  0.07960944  0.83467183  0.25624354     0.07700
C1064       C  0.10208164  0.89869875  0.28852403    -0.11500
C1065       C  0.11052309  0.91408103  0.31300635    -0.10800
C1066       C  0.14654383  0.91550695  0.32193604    -0.01700
C1067       C  0.17397811  0.90091015  0.30600245    -0.11900
C1068       C  0.16560518  0.88634786  0.28112876    -0.10300
H1069       H  0.07419376  0.89851819  0.28189496     0.07700
H1070       H  0.08877921  0.92465995  0.32508239     0.11400
H1071       H  0.20189541  0.90149375  0.31253364     0.11100
H1072       H  0.18723570  0.87625449  0.26873451     0.07600
C1073       C  0.17649393  0.94456084  0.05364207    -0.11500
C1074       C  0.19659175  0.91734823  0.04106818     0.05700
C1075       C  0.19238119  0.88122958  0.04945338    -0.10200
C1076       C  0.16786421  0.87238656  0.06963406    -0.11900
C1077       C  0.14650937  0.89941391  0.08136260    -0.01700
C1078       C  0.15139563  0.93564498  0.07336550    -0.10800
C1079       C  0.22019475  0.92654209  0.01823880     0.05700
H1080       H  0.20761230  0.85980284  0.04003985     0.07600
H1081       H  0.16421361  0.84418449  0.07504418     0.11100
H1082       H  0.13504179  0.95698431  0.08184353     0.11400
H1083       H  0.17906026  0.97255002  0.04736532     0.07700
C1084       C  0.21566689  0.90878822  0.99388728    -0.11500
C1085       C  0.23609343  0.91910927  0.97174641    -0.10800
C1086       C  0.26188420  0.94706678  0.97359188    -0.01700
C1087       C  0.26703620  0.96414896  0.99820770    -0.11900
C1088       C  0.24614226  0.95423425  0.02022380    -0.10300
H1089       H  0.19561332  0.88753489  0.99182563     0.07700
H1090       H  0.23161822  0.90524984  0.95315617     0.11400
H1091       H  0.28678791  0.98565855  0.00035309     0.11100
H1092       H  0.25017605  0.96821396  0.03882466     0.07600
C1093       C  0.89569644  0.88791018  0.62590687    -0.11500
C1094       C  0.93177508  0.88688592  0.63496597     0.05700
C1095       C  0.94866859  0.91988177  0.64155527    -0.10200
C1096       C  0.93064418  0.95295449  0.63799386    -0.11900
C1097       C  0.89508605  0.95392905  0.62805055    -0.01700
C1098       C  0.87756316  0.92092458  0.62265033    -0.10800
C1099       C  0.95219606  0.85185434  0.63576594     0.05700
H1100       H  0.97610018  0.92027246  0.64906983     0.07600
H1101       H  0.94492684  0.97785815  0.64241321     0.11100
H1102       H  0.85032338  0.92062739  0.61470041     0.11400
H1103       H  0.88183747  0.86331581  0.62014346     0.07700
C1104       C  0.93434924  0.81898241  0.64137340    -0.11500
C1105       C  0.95220074  0.78581017  0.63852613    -0.10800
C1106       C  0.98854658  0.78455661  0.63036240    -0.01700
C1107       C  0.00718419  0.81734565  0.62650830    -0.11900
C1108       C  0.98918598  0.85057985  0.62901389    -0.10300
H1109       H  0.90623258  0.81875700  0.64732348     0.07700
H1110       H  0.93712645  0.76100843  0.64186833     0.11400
H1111       H  0.03508254  0.81730422  0.61997458     0.11100
H1112       H  0.00386913  0.87513180  0.62423909     0.07600
C1113       C  0.92683019  0.19545997  0.55150575    -0.11500
C1114       C  0.90315338  0.21821771  0.53720861     0.05700
C1115       C  0.86637724  0.21856340  0.54455036    -0.10200
C1116       C  0.85319288  0.19506715  0.56413458    -0.11900
C1117       C  0.87648540  0.17103659  0.57741903    -0.01700
C1118       C  0.91366106  0.17227649  0.57145582    -0.10800
C1119       C  0.91586809  0.23964486  0.51364757     0.05700
H1120       H  0.84740904  0.23642446  0.53467617     0.07600
H1121       H  0.82445829  0.19492772  0.56830880     0.11100
H1122       H  0.93228009  0.15376857  0.58109359     0.11400
H1123       H  0.95521916  0.19413811  0.54640826     0.07700
C1124       C  0.95083132  0.25495725  0.51246609    -0.11500
C1125       C  0.96226332  0.27442896  0.48993124    -0.10800
C1126       C  0.93894061  0.27919852  0.46811185    -0.01700
C1127       C  0.90415973  0.26379578  0.46933667    -0.11900
C1128       C  0.89292564  0.24419717  0.49159641    -0.10300
H1129       H  0.96925583  0.25225925  0.52904924     0.07700
H1130       H  0.98924240  0.28590323  0.48965793     0.11400
H1131       H  0.88552496  0.26647589  0.45285635     0.11100
H1132       H  0.86628126  0.23202295  0.49122935     0.07600
C1133       C  0.03215831  0.97638955  0.49226385    -0.11500
C1134       C  0.02121137  0.01252774  0.49588969     0.05700
C1135       C  0.04155091  0.04049896  0.48415035    -0.10200
C1136       C  0.07192163  0.03257966  0.46898382    -0.11900
C1137       C  0.08220614  0.99649799  0.46478278    -0.01700
C1138       C  0.06223103  0.96842997  0.47662744    -0.10800
C1139       C  0.98884378  0.02122679  0.51191630     0.05700
H1140       H  0.03349205  0.06855823  0.48606849     0.07600
H1141       H  0.08642044  0.05467399  0.45957967     0.11100
H1142       H  0.06964790  0.94035905  0.47355935     0.11400
H1143       H  0.01749954  0.95427605  0.50146227     0.07700
C1144       C  0.95808118  0.99873264  0.51146201    -0.11500
C1145       C  0.92818004  0.00654437  0.52734423    -0.10800
C1146       C  0.92840547  0.03718092  0.54374623    -0.01700
C1147       C  0.95868401  0.06024453  0.54352437    -0.11900
C1148       C  0.98863257  0.05221311  0.52797365    -0.10300
H1149       H  0.95712663  0.97503276  0.49890022     0.07700
H1150       H  0.90523844  0.98826945  0.52716171     0.11400
H1151       H  0.95985779  0.08393648  0.55611459     0.11100
H1152       H  0.01203324  0.06979490  0.52916231     0.07600
C1153       C  0.71672759  0.12484045  0.51319749    -0.11500
C1154       C  0.71752693  0.10363994  0.49013066     0.05700
C1155       C  0.73990330  0.07288805  0.48959721    -0.10200
C1156       C  0.76115235  0.06361406  0.51162041    -0.11900
C1157       C  0.75990762  0.08445394  0.53487456    -0.01700
C1158       C  0.73743093  0.11517381  0.53541014    -0.10800
C1159       C  0.69379924  0.11266409  0.46720201     0.05700
H1160       H  0.74102427  0.05609605  0.47207164     0.07600
H1161       H  0.77810252  0.03974188  0.51060640     0.11100
H1162       H  0.73594473  0.13182922  0.55299536     0.11400
H1163       H  0.69939601  0.14843459  0.51425271     0.07700
C1164       C  0.67162433  0.08588271  0.45595652    -0.11500
C1165       C  0.64676642  0.09479170  0.43604645    -0.10800
C1166       C  0.64388244  0.13059912  0.42657162    -0.01700
C1167       C  0.66728026  0.15709196  0.43693261    -0.11900
C1168       C  0.69177379  0.14826821  0.45723069    -0.10300
H1169       H  0.67243192  0.05830648  0.46337412     0.07700
H1170       H  0.62898291  0.07379473  0.42860907     0.11400
H1171       H  0.66539632  0.18498192  0.43029927     0.11100
H1172       H  0.70873287  0.16937166  0.46547054     0.07600
C1173       C  0.67122794  0.00265071  0.64599866    -0.11500
C1174       C  0.67412351  0.96453829  0.64693077     0.05700
C1175       C  0.70877325  0.94903958  0.64464365    -0.10200
C1176       C  0.73890454  0.97056622  0.63884479    -0.11900
C1177       C  0.73544777  0.00823522  0.63608662    -0.01700
C1178       C  0.70171214  0.02432064  0.64079183    -0.10800
C1179       C  0.64108131  0.94098972  0.64653841     0.05700
H1180       H  0.71239281  0.91998074  0.64601843     0.07600
H1181       H  0.76475629  0.95761712  0.63538958     0.11100
H1182       H  0.69838080  0.05331820  0.63843594     0.11400
H1183       H  0.64508245  0.01564433  0.64742933     0.07700
C1184       C  0.60882471  0.95104663  0.65944194    -0.11500
C1185       C  0.57662211  0.93147629  0.65532299    -0.10800
C1186       C  0.57603344  0.90154439  0.63814718    -0.01700
C1187       C  0.60874291  0.89017019  0.62675268    -0.11900
C1188       C  0.64067585  0.90959386  0.63079629    -0.10300
H1189       H  0.60816776  0.97474221  0.67200939     0.07700
H1190       H  0.55185106  0.94103436  0.66432491     0.11400
H1191       H  0.60933672  0.86724540  0.61341450     0.11100
H1192       H  0.66455584  0.90110871  0.62012144     0.07600
C1193       C  0.79687811  0.11891286  0.01115028    -0.11500
C1194       C  0.79599915  0.09722133  0.98835857     0.05700
C1195       C  0.77315031  0.06678964  0.98785796    -0.10200
C1196       C  0.75149999  0.05828069  0.00983111    -0.11900
C1197       C  0.75310612  0.07951080  0.03292183    -0.01700
C1198       C  0.77593169  0.10997360  0.03328118    -0.10800
C1199       C  0.82004914  0.10601531  0.96573733     0.05700
H1200       H  0.77202560  0.04972645  0.97046240     0.07600
H1201       H  0.73411675  0.03465602  0.00898394     0.11100
H1202       H  0.77753010  0.12697993  0.05068620     0.11400
H1203       H  0.81448688  0.14237288  0.01204016     0.07700
C1204       C  0.82025018  0.14109255  0.95486908    -0.11500
C1205       C  0.84608666  0.15102637  0.93595271    -0.10800
C1206       C  0.87275441  0.12628200  0.92792055    -0.01700
C1207       C  0.87163997  0.09069256  0.93803506    -0.11900
C1208       C  0.84524346  0.08053662  0.95656442    -0.10300
H1209       H  0.80101213  0.16114473  0.96162739     0.07700
H1210       H  0.84640094  0.17869196  0.92873191     0.11400
H1211       H  0.89188820  0.07105450  0.93227173     0.11100
H1212       H  0.84570294  0.05338918  0.96478938     0.07600
C1213       C  0.99662298  0.07092187  0.00469228    -0.11500
C1214       C  0.01301381  0.03779363  0.99793566     0.05700
C1215       C  0.03024347  0.03448649  0.97334868    -0.10200
C1216       C  0.03000126  0.06324045  0.95548520    -0.11900
C1217       C  0.01284306  0.09596279  0.96195629    -0.01700
C1218       C  0.99675442  0.09993558  0.98685843    -0.10800
C1219       C  0.01252185  0.00687140  0.01655717     0.05700
H1220       H  0.04381763  0.00963209  0.96786969     0.07600
H1221       H  0.04268770  0.05966223  0.93632515     0.11100
H1222       H  0.98283616  0.12474371  0.99199236     0.11400
H1223       H  0.98278399  0.07406776  0.02343922     0.07700
C1224       C  0.01738711  0.01296061  0.04369399    -0.11500
C1225       C  0.01751721  0.98408613  0.06138940    -0.10800
C1226       C  0.01307295  0.94836782  0.05234786    -0.01700
C1227       C  0.00825701  0.94204921  0.02520030    -0.11900
C1228       C  0.00782000  0.97115689  0.00741293    -0.10300
H1229       H  0.02181235  0.04004375  0.05124953     0.07700
H1230       H  0.02169363  0.98982239  0.08220651     0.11400
H1231       H  0.00482695  0.91475872  0.01776641     0.11100
H1232       H  0.00358428  0.96576042  0.98655762     0.07600
C1233       C  0.88693796  0.11889785  0.78887531    -0.11500
C1234       C  0.88920976  0.14355273  0.76772689     0.05700
C1235       C  0.90451346  0.17798964  0.77241574    -0.10200
C1236       C  0.91879068  0.18673753  0.79753236    -0.11900
C1237       C  0.91803074  0.16108541  0.81822093    -0.01700
C1238       C  0.90116505  0.12745867  0.81363490    -0.10800
C1239       C  0.87793806  0.13169496  0.74072139     0.05700
H1240       H  0.90668647  0.19753564  0.75643591     0.07600
H1241       H  0.93141897  0.21290958  0.80049859     0.11100
H1242       H  0.89928890  0.10728367  0.82923194     0.11400
H1243       H  0.87463104  0.09251393  0.78612924     0.07700
C1244       C  0.88804789  0.09714952  0.73173675    -0.11500
C1245       C  0.87835915  0.08531958  0.70646733    -0.10800
C1246       C  0.85807878  0.10757124  0.68937416    -0.01700
C1247       C  0.84715120  0.14190049  0.69845932    -0.11900
C1248       C  0.85724111  0.15396927  0.72384555    -0.10300
H1249       H  0.90428442  0.07944332  0.74409970     0.07700
H1250       H  0.88731156  0.05878921  0.70015016     0.11400
H1251       H  0.83171094  0.15978042  0.68569489     0.11100
H1252       H  0.84881258  0.18059462  0.73031454     0.07600
C1253       C  0.86356170  0.32603890  0.03343139    -0.11500
C1254       C  0.89943864  0.31358226  0.03559206     0.05700
C1255       C  0.92048769  0.32552371  0.05712796    -0.10200
C1256       C  0.90629712  0.35000232  0.07556759    -0.11900
C1257       C  0.87070135  0.36310159  0.07295453    -0.01700
C1258       C  0.84937481  0.35039346  0.05186481    -0.10800
C1259       C  0.91498388  0.28965485  0.01468618     0.05700
H1260       H  0.94805640  0.31623119  0.05958456     0.07600
H1261       H  0.92356083  0.35938769  0.09150461     0.11100
H1262       H  0.82209347  0.36033976  0.04897668     0.11400
H1263       H  0.84674511  0.31803369  0.01686460     0.07700
C1264       C  0.89350152  0.26289376  0.00258177    -0.11500
C1265       C  0.90647018  0.24322002  0.98094420    -0.10800
C1266       C  0.94142100  0.24948984  0.97097299    -0.01700
C1267       C  0.96370215  0.27481343  0.98391117    -0.11900
C1268       C  0.95058097  0.29479577  0.00544686    -0.10300
H1269       H  0.86633336  0.25753788  0.00957158     0.07700
H1270       H  0.88887545  0.22339363  0.97174967     0.11400
H1271       H  0.99079564  0.28019638  0.97674567     0.11100
H1272       H  0.96783545  0.31531027  0.01413654     0.07600
C1273       C  0.07349921  0.32676050  0.86724567    -0.11500
C1274       C  0.05517033  0.35919795  0.87288155     0.05700
C1275       C  0.01786386  0.35738160  0.87856377    -0.10200
C1276       C  0.00013470  0.32381832  0.88058120    -0.11900
C1277       C  0.01939167  0.29137513  0.87716596    -0.01700
C1278       C  0.05591941  0.29332538  0.86951410    -0.10800
C1279       C  0.07558705  0.39408027  0.87529464     0.05700
H1280       H  0.00280601  0.38169377  0.88311454     0.07600
H1281       H  0.97201531  0.32322618  0.88657589     0.11100
H1282       H  0.07143270  0.26883090  0.86638327     0.11400
H1283       H  0.10188538  0.32707474  0.86200592     0.07700
C1284       C  0.11061059  0.39444411  0.88638021    -0.11500
C1285       C  0.12879638  0.42712412  0.89096025    -0.10800
C1286       C  0.11234474  0.46043474  0.88487844    -0.01700
C1287       C  0.07778602  0.46017436  0.87312294    -0.11900
C1288       C  0.05969635  0.42741349  0.86828081    -0.10300
H1289       H  0.12353046  0.36950373  0.89258092     0.07700
H1290       H  0.15519368  0.42631349  0.90029514     0.11400
H1291       H  0.06440492  0.48538038  0.86809283     0.11100
H1292       H  0.03305203  0.42824477  0.85937635     0.07600
C1293       C  0.14749098  0.12517311  0.87330597    -0.11500
C1294       C  0.14807486  0.09395303  0.85740767     0.05700
C1295       C  0.11599569  0.08386761  0.84416506    -0.10200
C1296       C  0.08356508  0.10271138  0.84857567    -0.11900
C1297       C  0.08269702  0.13201437  0.86626195    -0.01700
C1298       C  0.11537219  0.14399022  0.87752399    -0.10800
C1299       C  0.18069869  0.07005033  0.85773042     0.05700
H1300       H  0.11555260  0.06042474  0.83134459     0.07600
H1301       H  0.05885215  0.09286782  0.83956330     0.11100
H1302       H  0.11575706  0.16662495  0.89113615     0.11400
H1303       H  0.17123617  0.13375641  0.88417541     0.07700
C1304       C  0.21546675  0.08496490  0.86127900    -0.11500
C1305       C  0.24468587  0.06288142  0.86819483    -0.10800
C1306       C  0.24015699  0.02529693  0.87073700    -0.01700
C1307       C  0.20651934  0.00981189  0.86473964    -0.11900
C1308       C  0.17692905  0.03201033  0.85848762    -0.10300
H1309       H  0.21977676  0.11395044  0.86010272     0.07700
H1310       H  0.27056366  0.07530553  0.87266346     0.11400
H1311       H  0.20243596  0.98088079  0.86692442     0.11100
H1312       H  0.15065405  0.01944657  0.85618940     0.07600
loop_ 
_geom_bond_atom_site_label_1 
_geom_bond_atom_site_label_2 
_geom_bond_distance 
_geom_bond_site_symmetry_2 
_ccdc_geom_bond_type 
O1          Cr19   2.015       .  S
O1            C9   1.271       .  A
O2          Cr19   1.984       .  S
O2            C3   1.258       .  A
C3            O4   1.263       .  A
C3         C1266   1.487       .  S
O4          Cr20   2.010   1_655  S
O5          Cr20   1.991       .  S
O5            C6   1.260       .  A
C6            O7   1.256       .  A
C6         C1217   1.463       .  S
O7          Cr21   1.980   1_455  S
O8          Cr21   1.978       .  S
O8            C9   1.263       .  A
C9         C1206   1.483       .  S
O10         Cr19   2.007       .  S
O10          C18   1.264       .  A
O11         Cr19   2.030       .  S
O11          C12   1.273   1_655  A
C12          O13   1.260       .  A
C12        C1277   1.485       .  S
O13         Cr20   1.965       .  S
O14         Cr20   2.003       .  S
O14          C15   1.270       .  A
C15          O16   1.268       .  A
C15        C1297   1.484       .  S
O16         Cr21   1.992   1_455  S
O17         Cr21   1.984       .  S
O17          C18   1.260       .  A
C18        C1237   1.488       .  S
Cr19         O22   1.774       .  S
Cr20         O22   1.769   1_455  S
Cr21         O22   1.774       .  S
O23         Cr41   1.980       .  S
O23          C31   1.261       .  A
O24         Cr41   2.012       .  S
O24          C25   1.266       .  A
C25          O26   1.260       .  A
C25        C1157   1.486       .  S
O26         Cr42   1.983       .  S
O27         Cr42   2.010       .  S
O27          C28   1.265       .  A
C28          O29   1.255       .  A
C28        C1146   1.474       .  S
O29         Cr43   1.956       .  S
O30         Cr43   2.014       .  S
O30          C31   1.268       .  A
C31        C1117   1.488       .  S
O32         Cr41   2.031       .  S
O32          C40   1.269       .  A
O33         Cr41   1.993       .  S
O33          C34   1.267       .  A
C34          O35   1.268       .  A
C34        C1177   1.476       .  S
O35         Cr42   2.002       .  S
O36         Cr42   1.978   1_565  S
O36          C37   1.261       .  A
C37          O38   1.268   1_565  A
C37        C1097   1.488       .  S
O38         Cr43   2.016       .  S
O39         Cr43   1.969       .  S
O39          C40   1.258       .  A
C40        C1246   1.488       .  S
Cr41         O44   1.781       .  S
Cr42         O44   1.773       .  S
Cr43         O44   1.771       .  S
O45         Cr63   1.969       .  S
O45          C53   1.262       .  A
O46         Cr63   1.977       .  S
O46          C47   1.255       .  A
C47          O48   1.258       .  A
C47        C1226   1.468       .  S
O48         Cr64   1.988       .  S
O49         Cr64   2.013       .  S
O49          C50   1.265       .  A
C50          O51   1.257       .  A
C50        C1006   1.488       .  S
O51         Cr65   1.971       .  S
O52         Cr65   2.020       .  S
O52          C53   1.273       .  A
C53        C1077   1.481       .  S
O54         Cr63   1.991       .  S
O54          C62   1.258       .  A
O55         Cr63   1.986       .  S
O55          C56   1.269   1_455  A
C56          O57   1.273       .  A
C56        C1046   1.475       .  S
O57         Cr64   2.014   1_655  S
O58         Cr64   1.962   1_655  S
O58          C59   1.259   1_655  A
C59          O60   1.269       .  A
C59        C1026   1.481   1_455  S
O60         Cr65   2.012       .  S
O61         Cr65   1.994       .  S
O61          C62   1.258       .  A
C62        C1057   1.473       .  S
Cr63         O66   1.778       .  S
Cr64         O66   1.771       .  S
Cr65         O66   1.773       .  S
O67         Cr85   2.003       .  S
O67          C75   1.264       .  A
O68         Cr85   1.968       .  S
O68          C69   1.255       .  A
C69          O70   1.263   1_565  A
C69        C1137   1.468       .  S
O70         Cr86   2.003       .  S
O71         Cr86   1.982   1_565  S
O71          C72   1.262       .  A
C72          O73   1.267       .  A
C72         C966   1.481       .  S
O73         Cr87   2.007       .  S
O74         Cr87   1.983       .  S
O74          C75   1.260       .  A
C75         C917   1.484       .  S
O76         Cr85   1.964       .  S
O76          C84   1.260       .  A
O77         Cr85   2.018   1_545  S
O77          C78   1.270       .  A
C78          O79   1.262       .  A
C78         C937   1.482       .  S
O79         Cr86   1.977       .  S
O80         Cr86   1.995       .  S
O80          C81   1.266       .  A
C81          O82   1.267   1_545  A
C81         C986   1.487       .  S
O82         Cr87   2.000       .  S
O83         Cr87   2.019       .  S
O83          C84   1.269       .  A
C84        C1066   1.477       .  S
Cr85         O88   1.772       .  S
Cr86         O88   1.767   1_545  S
Cr87         O88   1.773       .  S
O89        Cr107   1.973       .  S
O89          C97   1.260       .  A
O90        Cr107   2.017       .  S
O90          C91   1.268       .  A
C91          O92   1.260       .  A
C91        C1086   1.486       .  S
O92        Cr108   1.980   1_565  S
O93        Cr108   1.995       .  S
O93          C94   1.262   1_545  A
C94          O95   1.255       .  A
C94         C857   1.466       .  S
O95        Cr109   1.967       .  S
O96        Cr109   2.015       .  S
O96          C97   1.268       .  A
C97         C837   1.485       .  S
O98        Cr107   2.030       .  S
O98         C106   1.269       .  A
O99        Cr107   1.989       .  S
O99         C100   1.265   1_565  A
C100        O101   1.266       .  A
C100       C1306   1.471       .  S
O101       Cr108   1.997       .  S
O102       Cr108   1.971       .  S
O102        C103   1.261       .  A
C103        O104   1.270       .  A
C103        C897   1.484       .  S
O104       Cr109   2.025   1_545  S
O105       Cr109   1.965       .  S
O105        C106   1.259       .  A
C106        C877   1.489       .  S
Cr107       O110   1.776       .  S
Cr108       O110   1.770   1_545  S
Cr109       O110   1.769       .  S
O111       Cr129   2.019       .  S
O111        C119   1.272       .  A
O112       Cr129   1.980       .  S
O112        C113   1.257       .  A
C113        O114   1.264       .  A
C113        C777   1.488       .  S
O114       Cr130   2.014       .  S
O115       Cr130   1.995       .  S
O115        C116   1.261       .  A
C116        O117   1.256       .  A
C116        C817   1.466       .  S
O117       Cr131   1.982       .  S
O118       Cr131   1.968       .  S
O118        C119   1.261       .  A
C119        C957   1.483       .  S
O120       Cr129   2.007       .  S
O120        C128   1.264       .  A
O121       Cr129   2.028       .  S
O121        C122   1.272       .  A
C122        O123   1.260       .  A
C122        C797   1.481       .  S
O123       Cr130   1.963       .  S
O124       Cr130   2.012       .  S
O124        C125   1.272       .  A
C125        O126   1.268       .  A
C125       C1186   1.487       .  S
O126       Cr131   1.989       .  S
O127       Cr131   1.985       .  S
O127        C128   1.261       .  A
C128        C886   1.491       .  S
Cr129       O132   1.777       .  S
Cr130       O132   1.768       .  S
Cr131       O132   1.772       .  S
O133       Cr151   2.004       .  S
O133        C141   1.264       .  A
O134       Cr151   1.958       .  S
O134        C135   1.254       .  A
C135        O136   1.263       .  A
C135        C866   1.467       .  S
O136       Cr152   2.004       .  S
O137       Cr152   1.977       .  S
O137        C138   1.261       .  A
C138        O139   1.270       .  A
C138       C1197   1.482       .  S
O139       Cr153   2.016       .  S
O140       Cr153   1.978       .  S
O140        C141   1.260       .  A
C141        C766   1.482       .  S
O142       Cr151   1.960       .  S
O142        C150   1.258       .  A
O143       Cr151   2.019       .  S
O143        C144   1.269   1_545  A
C144        O145   1.262       .  A
C144        C717   1.483       .  S
O145       Cr152   1.975   1_565  S
O146       Cr152   1.992       .  S
O146        C147   1.266       .  A
C147        O148   1.267       .  A
C147       C1037   1.486       .  S
O148       Cr153   1.999       .  S
O149       Cr153   2.030       .  S
O149        C150   1.271       .  A
C150        C737   1.483       .  S
Cr151       O154   1.769       .  S
Cr152       O154   1.766       .  S
Cr153       O154   1.772       .  S
O155       Cr173   1.967       .  S
O155        C163   1.261       .  A
O156       Cr173   1.976       .  S
O156        C157   1.255       .  A
C157        O158   1.260       .  A
C157        C826   1.474       .  S
O158       Cr174   1.996       .  S
O159       Cr174   2.012       .  S
O159        C160   1.265       .  A
C160        O161   1.257       .  A
C160        C677   1.485       .  S
O161       Cr175   1.969       .  S
O162       Cr175   2.026       .  S
O162        C163   1.273       .  A
C163       C1166   1.485       .  S
O164       Cr173   1.996       .  S
O164        C172   1.260       .  A
O165       Cr173   1.987       .  S
O165        C166   1.269       .  A
C166        O167   1.272       .  A
C166        C977   1.476       .  S
O167       Cr174   2.013       .  S
O168       Cr174   1.968       .  S
O168        C169   1.261       .  A
C169        O170   1.270       .  A
C169        C697   1.487       .  S
O170       Cr175   2.022       .  S
O171       Cr175   1.996       .  S
O171        C172   1.260       .  A
C172        C746   1.476       .  S
Cr173       O176   1.777       .  S
Cr174       O176   1.772       .  S
Cr175       O176   1.776       .  S
O177       Cr195   1.970       .  S
O177        C185   1.259       .  A
O178       Cr195   1.998       .  S
O178        C179   1.263       .  A
C179        O180   1.261       .  A
C179        C757   1.480       .  S
O180       Cr196   1.986       .  S
O181       Cr196   2.006       .  S
O181        C182   1.263       .  A
C182        O183   1.256       .  A
C182        C597   1.477       .  S
O183       Cr197   1.966       .  S
O184       Cr197   2.017       .  S
O184        C185   1.269       .  A
C185        C637   1.487       .  S
O186       Cr195   2.022       .  S
O186        C194   1.266       .  A
O187       Cr195   1.988       .  S
O187        C188   1.267       .  A
C188        O189   1.269       .  A
C188        C906   1.474       .  S
O189       Cr196   2.004       .  S
O190       Cr196   1.972       .  S
O190        C191   1.262       .  A
C191        O192   1.269       .  A
C191        C657   1.482       .  S
O192       Cr197   2.016       .  S
O193       Cr197   1.968       .  S
O193        C194   1.258       .  A
C194        C626   1.484       .  S
Cr195       O198   1.779       .  S
Cr196       O198   1.770       .  S
Cr197       O198   1.770       .  S
O199       Cr217   2.027       .  S
O199        C207   1.272       .  A
O200       Cr217   1.983       .  S
O200        C201   1.258       .  A
C201        O202   1.264       .  A
C201        C557   1.482       .  S
O202       Cr218   2.012       .  S
O203       Cr218   1.994       .  S
O203        C204   1.262       .  A
C204        O205   1.260       .  A
C204        C537   1.462       .  S
O205       Cr219   1.983       .  S
O206       Cr219   1.957       .  S
O206        C207   1.258       .  A
C207        C686   1.483       .  S
O208       Cr217   1.997       .  S
O208        C216   1.262       .  A
O209       Cr217   2.031       .  S
O209        C210   1.273       .  A
C210        O211   1.260       .  A
C210        C577   1.480       .  S
O211       Cr218   1.962       .  S
O212       Cr218   2.006       .  S
O212        C213   1.268       .  A
C213        O214   1.263       .  A
C213        C806   1.479       .  S
O214       Cr219   1.982       .  S
O215       Cr219   1.988       .  S
O215        C216   1.261       .  A
C216        C617   1.486       .  S
Cr217       O220   1.776       .  S
Cr218       O220   1.771       .  S
Cr219       O220   1.768       .  S
O221       Cr239   2.018       .  S
O221        C229   1.268       .  A
O222       Cr239   1.966       .  S
O222        C223   1.254       .  A
C223        O224   1.266       .  A
C223        C546   1.471       .  S
O224       Cr240   2.013       .  S
O225       Cr240   1.982       .  S
O225        C226   1.262       .  A
C226        O227   1.268       .  A
C226        C486   1.481       .  S
O227       Cr241   2.010       .  S
O228       Cr241   1.971       .  S
O228        C229   1.258       .  A
C229        C786   1.487       .  S
O230       Cr239   1.967       .  S
O230        C238   1.258       .  A
O231       Cr239   2.024       .  S
O231        C232   1.270       .  A
C232        O233   1.262       .  A
C232        C706   1.485       .  S
O233       Cr240   1.979       .  S
O234       Cr240   2.002       .  S
O234        C235   1.268       .  A
C235        O236   1.266       .  A
C235        C506   1.483       .  S
O236       Cr241   1.990       .  S
O237       Cr241   2.030       .  S
O237        C238   1.270       .  A
C238        C526   1.482       .  S
Cr239       O242   1.767       .  S
Cr240       O242   1.768       .  S
Cr241       O242   1.774       .  S
O243       Cr261   2.014       .  S
O243        C251   1.267       .  A
O244       Cr261   1.977       .  S
O244        C245   1.256       .  A
C245        O246   1.262       .  A
C245        C606   1.472       .  S
O246       Cr262   2.001       .  S
O247       Cr262   1.990       .  S
O247        C248   1.264       .  A
C248        O249   1.268       .  A
C248        C846   1.486       .  S
O249       Cr263   2.009       .  S
O250       Cr263   1.963       .  S
O250        C251   1.257       .  A
C251        C457   1.483       .  S
O252       Cr261   1.969       .  S
O252        C260   1.258       .  A
O253       Cr261   2.019       .  S
O253        C254   1.271       .  A
C254        O255   1.265       .  A
C254        C437   1.484       .  S
O255       Cr262   1.982       .  S
O256       Cr262   1.995       .  S
O256        C257   1.266       .  A
C257        O258   1.266       .  A
C257        C726   1.480       .  S
O258       Cr263   1.992       .  S
O259       Cr263   2.027       .  S
O259        C260   1.269       .  A
C260        C517   1.484       .  S
Cr261       O264   1.769       .  S
Cr262       O264   1.766       .  S
Cr263       O264   1.776       .  S
O265       Cr283   1.980       .  S
O265        C273   1.260       .  A
O266       Cr283   2.009       .  S
O266        C267   1.266       .  A
C267        O268   1.260       .  A
C267        C466   1.484       .  S
O268       Cr284   1.980       .  S
O269       Cr284   2.001       .  S
O269        C270   1.263       .  A
C270        O271   1.254       .  A
C270        C397   1.469       .  S
O271       Cr285   1.958       .  S
O272       Cr285   2.008       .  S
O272        C273   1.266       .  A
C273        C997   1.483       .  S
O274       Cr283   2.029       .  S
O274        C282   1.269       .  A
O275       Cr283   1.988       .  S
O275        C276   1.266       .  A
C276        O277   1.267       .  A
C276        C666   1.471       .  S
O277       Cr284   2.000       .  S
O278       Cr284   1.981       .  S
O278        C279   1.263       .  A
C279        O280   1.268       .  A
C279       C1286   1.487       .  S
O280       Cr285   2.014       .  S
O281       Cr285   1.961       .  S
O281        C282   1.258       .  A
C282        C417   1.484       .  S
Cr283       O286   1.779       .  S
Cr284       O286   1.770       .  S
Cr285       O286   1.767       .  S
O287       Cr305   2.020       .  S
O287        C295   1.271       .  A
O288       Cr305   1.971       .  S
O288        C289   1.256       .  A
C289        O290   1.266       .  A
C289        C926   1.482       .  S
O290       Cr306   2.017   1_455  S
O291       Cr306   1.991   1_455  S
O291        C292   1.260       .  A
C292        O293   1.258       .  A
C292        C377   1.466   1_455  S
O293       Cr307   1.985       .  S
O294       Cr307   1.967       .  S
O294        C295   1.260       .  A
C295        C477   1.479       .  S
O296       Cr305   1.997       .  S
O296        C304   1.263       .  A
O297       Cr305   2.029       .  S
O297        C298   1.272       .  A
C298        O299   1.259   1_455  A
C298       C1106   1.485   1_455  S
O299       Cr306   1.967       .  S
O300       Cr306   2.012       .  S
O300        C301   1.271       .  A
C301        O302   1.265       .  A
C301        C586   1.477       .  S
O302       Cr307   1.978   1_655  S
O303       Cr307   1.988       .  S
O303        C304   1.262       .  A
C304        C426   1.485       .  S
Cr305       O308   1.772       .  S
Cr306       O308   1.768   1_655  S
Cr307       O308   1.770       .  S
O309       Cr327   1.964       .  S
O309        C317   1.262       .  A
O310       Cr327   1.973       .  S
O310        C311   1.252       .  A
C311        O312   1.259       .  A
C311        C386   1.472       .  S
O312       Cr328   1.996   1_655  S
O313       Cr328   2.014   1_655  S
O313        C314   1.265       .  A
C314        O315   1.258       .  A
C314       C1126   1.491       .  S
O315       Cr329   1.972       .  S
O316       Cr329   2.024       .  S
O316        C317   1.274       .  A
C317        C566   1.478       .  S
O318       Cr327   1.987       .  S
O318        C326   1.255       .  A
O319       Cr327   1.984   1_455  S
O319        C320   1.269       .  A
C320        O321   1.273       .  A
C320        C497   1.471       .  S
O321       Cr328   2.012       .  S
O322       Cr328   1.971       .  S
O322        C323   1.261       .  A
C323        O324   1.267   1_455  A
C323        C946   1.483       .  S
O324       Cr329   2.005       .  S
O325       Cr329   1.997       .  S
O325        C326   1.256       .  A
C326        C357   1.471       .  S
Cr327       O330   1.782       .  S
Cr328       O330   1.773   1_455  S
Cr329       O330   1.775       .  S
O331       Cr349   2.003       .  S
O331        C339   1.263       .  A
O332       Cr349   1.967       .  S
O332        C333   1.255       .  A
C333        O334   1.262       .  A
C333        C406   1.464       .  S
O334       Cr350   1.996       .  S
O335       Cr350   1.990       .  S
O335        C336   1.263       .  A
C336        O337   1.266       .  A
C336        C646   1.486       .  S
O337       Cr351   2.005       .  S
O338       Cr351   1.989       .  S
O338        C339   1.262       .  A
C339       C1257   1.486       .  S
O340       Cr349   1.961       .  S
O340        C348   1.258       .  A
O341       Cr349   2.008       .  S
O341        C342   1.267       .  A
C342        O343   1.264       .  A
C342       C1017   1.478       .  S
O343       Cr350   1.983       .  S
O344       Cr350   1.994       .  S
O344        C345   1.266       .  A
C345        O346   1.267       .  A
C345        C446   1.481       .  S
O346       Cr351   1.998       .  S
O347       Cr351   2.019       .  S
O347        C348   1.269       .  A
C348        C366   1.476       .  S
Cr349       O352   1.770       .  S
Cr350       O352   1.767       .  S
Cr351       O352   1.772       .  S
C353        C354   1.401       .  A
C353        C358   1.394       .  A
C353        H363   1.083       .  S
C354        C359   1.478       .  S
C354        C355   1.407       .  A
C355        C356   1.402       .  A
C355        H360   1.083       .  S
C356        C357   1.403       .  A
C356        H361   1.083       .  S
C357        C358   1.404       .  A
C358        H362   1.084       .  S
C359        C364   1.405       .  A
C359        C368   1.402       .  A
C364        C365   1.400       .  A
C364        H369   1.083       .  S
C365        C366   1.404       .  A
C365        H370   1.083       .  S
C366        C367   1.406       .  A
C367        C368   1.395       .  A
C367        H371   1.083       .  S
C368        H372   1.083       .  S
C373        C374   1.409   1_455  A
C373        C378   1.398       .  A
C373        H383   1.083       .  S
C374        C379   1.478       .  S
C374        C375   1.401       .  A
C375        C376   1.389       .  A
C375        H380   1.083       .  S
C376        C377   1.404       .  A
C376        H381   1.084       .  S
C377        C378   1.401   1_655  A
C378        H382   1.083       .  S
C379        C384   1.400       .  A
C379        C388   1.409   1_655  A
C384        C385   1.390       .  A
C384        H389   1.083       .  S
C385        C386   1.408       .  A
C385        H390   1.083       .  S
C386        C387   1.400   1_655  A
C387        C388   1.397       .  A
C387        H391   1.083       .  S
C388        H392   1.083       .  S
C393        C394   1.404   1_556  A
C393        C398   1.390       .  A
C393        H403   1.082       .  S
C394        C399   1.476   1_455  S
C394        C395   1.405       .  A
C395        C396   1.394   1_554  A
C395        H400   1.083       .  S
C396        C397   1.403       .  A
C396        H401   1.083       .  S
C397        C398   1.404       .  A
C398        H402   1.083       .  S
C399        C404   1.403       .  A
C399        C408   1.407       .  A
C404        C405   1.390       .  A
C404        H409   1.083       .  S
C405        C406   1.404       .  A
C405        H410   1.083       .  S
C406        C407   1.401       .  A
C407        C408   1.394       .  A
C407        H411   1.083       .  S
C408        H412   1.083       .  S
C413        C414   1.404       .  A
C413        C418   1.391       .  A
C413        H423   1.083       .  S
C414        C419   1.486       .  S
C414        C415   1.407       .  A
C415        C416   1.406       .  A
C415        H420   1.083       .  S
C416        C417   1.409       .  A
C416        H421   1.083       .  S
C417        C418   1.405       .  A
C418        H422   1.083       .  S
C419        C424   1.401       .  A
C419        C428   1.409       .  A
C424        C425   1.389       .  A
C424        H429   1.083       .  S
C425        C426   1.406       .  A
C425        H430   1.083       .  S
C426        C427   1.408       .  A
C427        C428   1.408       .  A
C427        H431   1.083       .  S
C428        H432   1.083       .  S
C433        C434   1.407       .  A
C433        C438   1.399       .  A
C433        H443   1.082       .  S
C434        C439   1.495       .  S
C434        C435   1.410       .  A
C435        C436   1.401       .  A
C435        H440   1.082       .  S
C436        C437   1.405       .  A
C436        H441   1.083       .  S
C437        C438   1.406       .  A
C438        H442   1.083       .  S
C439        C444   1.411       .  A
C439        C448   1.406       .  A
C444        C445   1.405       .  A
C444        H449   1.082       .  S
C445        C446   1.404       .  A
C445        H450   1.083       .  S
C446        C447   1.405       .  A
C447        C448   1.395       .  A
C447        H451   1.084       .  S
C448        H452   1.082       .  S
C453        C454   1.407       .  A
C453        C458   1.401       .  A
C453        H463   1.083       .  S
C454        C459   1.485       .  S
C454        C455   1.403       .  A
C455        C456   1.396       .  A
C455        H460   1.083       .  S
C456        C457   1.408       .  A
C456        H461   1.084       .  S
C457        C458   1.405       .  A
C458        H462   1.082       .  S
C459        C464   1.406   1_554  A
C459        C468   1.404       .  A
C464        C465   1.398       .  A
C464        H469   1.083       .  S
C465        C466   1.406       .  A
C465        H470   1.083       .  S
C466        C467   1.407       .  A
C467        C468   1.400   1_556  A
C467        H471   1.083   1_556  S
C468        H472   1.083       .  S
C473        C474   1.406       .  A
C473        C478   1.400       .  A
C473        H483   1.084       .  S
C474        C479   1.483       .  S
C474        C475   1.404       .  A
C475        C476   1.399       .  A
C475        H480   1.083       .  S
C476        C477   1.407       .  A
C476        H481   1.083       .  S
C477        C478   1.404       .  A
C478        H482   1.083       .  S
C479        C484   1.404       .  A
C479        C488   1.405       .  A
C484        C485   1.397       .  A
C484        H489   1.083       .  S
C485        C486   1.405       .  A
C485        H490   1.083       .  S
C486        C487   1.406       .  A
C487        C488   1.402       .  A
C487        H491   1.083       .  S
C488        H492   1.083       .  S
C493        C494   1.409       .  A
C493        C498   1.402       .  A
C493        H503   1.082       .  S
C494        C499   1.495       .  S
C494        C495   1.409       .  A
C495        C496   1.398       .  A
C495        H500   1.082       .  S
C496        C497   1.401       .  A
C496        H501   1.083       .  S
C497        C498   1.403       .  A
C498        H502   1.083       .  S
C499        C504   1.410       .  A
C499        C508   1.407       .  A
C504        C505   1.405       .  A
C504        H509   1.082       .  S
C505        C506   1.406       .  A
C505        H510   1.083       .  S
C506        C507   1.404       .  A
C507        C508   1.394       .  A
C507        H511   1.083       .  S
C508        H512   1.082       .  S
C513        C514   1.408       .  A
C513        C518   1.405       .  A
C513        H523   1.083       .  S
C514        C519   1.492       .  S
C514        C515   1.406       .  A
C515        C516   1.396       .  A
C515        H520   1.083       .  S
C516        C517   1.405       .  A
C516        H521   1.083       .  S
C517        C518   1.407       .  A
C518        H522   1.083       .  S
C519        C524   1.408       .  A
C519        C528   1.406       .  A
C524        C525   1.405       .  A
C524        H529   1.083       .  S
C525        C526   1.406       .  A
C525        H530   1.083       .  S
C526        C527   1.404       .  A
C527        C528   1.396       .  A
C527        H531   1.083       .  S
C528        H532   1.083       .  S
C533        C534   1.412       .  A
C533        C538   1.403       .  A
C533        H543   1.082       .  S
C534        C539   1.487       .  S
C534        C535   1.405       .  A
C535        C536   1.388       .  A
C535        H540   1.082       .  S
C536        C537   1.399       .  A
C536        H541   1.082       .  S
C537        C538   1.400       .  A
C538        H542   1.084       .  S
C539        C544   1.408       .  A
C539        C548   1.407       .  A
C544        C545   1.398       .  A
C544        H549   1.083       .  S
C545        C546   1.404       .  A
C545        H550   1.083       .  S
C546        C547   1.402       .  A
C547        C548   1.393       .  A
C547        H551   1.084       .  S
C548        H552   1.082       .  S
C553        C554   1.410       .  A
C553        C558   1.398       .  A
C553        H563   1.082       .  S
C554        C559   1.497       .  S
C554        C555   1.409       .  A
C555        C556   1.402       .  A
C555        H560   1.082       .  S
C556        C557   1.405       .  A
C556        H561   1.083       .  S
C557        C558   1.403       .  A
C558        H562   1.083       .  S
C559        C564   1.409       .  A
C559        C568   1.410       .  A
C564        C565   1.397       .  A
C564        H569   1.082       .  S
C565        C566   1.403       .  A
C565        H570   1.083       .  S
C566        C567   1.404       .  A
C567        C568   1.403       .  A
C567        H571   1.083       .  S
C568        H572   1.082       .  S
C573        C574   1.409       .  A
C573        C578   1.403       .  A
C573        H583   1.083       .  S
C574        C579   1.490       .  S
C574        C575   1.405       .  A
C575        C576   1.395       .  A
C575        H580   1.083       .  S
C576        C577   1.406       .  A
C576        H581   1.083       .  S
C577        C578   1.404       .  A
C578        H582   1.083       .  S
C579        C584   1.407       .  A
C579        C588   1.408       .  A
C584        C585   1.402       .  A
C584        H589   1.082       .  S
C585        C586   1.406       .  A
C585        H590   1.083       .  S
C586        C587   1.402       .  A
C587        C588   1.395       .  A
C587        H591   1.083       .  S
C588        H592   1.083       .  S
C593        C594   1.406       .  A
C593        C598   1.394       .  A
C593        H603   1.082       .  S
C594        C599   1.485   1_556  S
C594        C595   1.407       .  A
C595        C596   1.398       .  A
C595        H600   1.082   1_556  S
C596        C597   1.405       .  A
C596        H601   1.083       .  S
C597        C598   1.405       .  A
C598        H602   1.083       .  S
C599        C604   1.405       .  A
C599        C608   1.408       .  A
C604        C605   1.393       .  A
C604        H609   1.082       .  S
C605        C606   1.403       .  A
C605        H610   1.083       .  S
C606        C607   1.403       .  A
C607        C608   1.399       .  A
C607        H611   1.083       .  S
C608        H612   1.082       .  S
C613        C614   1.410       .  A
C613        C618   1.407       .  A
C613        H623   1.082       .  S
C614        C619   1.492       .  S
C614        C615   1.404       .  A
C615        C616   1.391       .  A
C615        H620   1.083       .  S
C616        C617   1.406       .  A
C616        H621   1.083       .  S
C617        C618   1.407       .  A
C618        H622   1.083       .  S
C619        C624   1.408       .  A
C619        C628   1.407       .  A
C624        C625   1.405       .  A
C624        H629   1.083       .  S
C625        C626   1.408       .  A
C625        H630   1.083       .  S
C626        C627   1.403       .  A
C627        C628   1.394       .  A
C627        H631   1.083       .  S
C628        H632   1.082       .  S
C633        C634   1.405       .  A
C633        C638   1.404       .  A
C633        H643   1.083       .  S
C634        C639   1.486       .  S
C634        C635   1.404       .  A
C635        C636   1.397       .  A
C635        H640   1.083       .  S
C636        C637   1.407       .  A
C636        H641   1.084       .  S
C637        C638   1.408       .  A
C638        H642   1.082       .  S
C639        C644   1.406       .  A
C639        C648   1.404   1_556  A
C644        C645   1.404   1_556  A
C644        H649   1.082       .  S
C645        C646   1.408       .  A
C645        H650   1.083       .  S
C646        C647   1.407       .  A
C647        C648   1.396       .  A
C647        H651   1.082       .  S
C648        H652   1.084       .  S
C653        C654   1.409       .  A
C653        C658   1.403       .  A
C653        H663   1.082       .  S
C654        C659   1.496       .  S
C654        C655   1.408       .  A
C655        C656   1.396       .  A
C655        H660   1.082       .  S
C656        C657   1.404       .  A
C656        H661   1.083       .  S
C657        C658   1.405       .  A
C658        H662   1.083       .  S
C659        C664   1.411       .  A
C659        C668   1.409       .  A
C664        C665   1.401       .  A
C664        H669   1.082       .  S
C665        C666   1.401       .  A
C665        H670   1.083       .  S
C666        C667   1.402       .  A
C667        C668   1.398       .  A
C667        H671   1.083       .  S
C668        H672   1.083       .  S
C673        C674   1.409       .  A
C673        C678   1.401       .  A
C673        H683   1.083       .  S
C674        C679   1.491       .  S
C674        C675   1.405       .  A
C675        C676   1.397       .  A
C675        H680   1.083       .  S
C676        C677   1.407       .  A
C676        H681   1.083       .  S
C677        C678   1.405       .  A
C678        H682   1.083       .  S
C679        C684   1.404       .  A
C679        C688   1.410       .  A
C684        C685   1.395       .  A
C684        H689   1.083       .  S
C685        C686   1.407       .  A
C685        H690   1.083       .  S
C686        C687   1.404       .  A
C687        C688   1.403       .  A
C687        H691   1.083       .  S
C688        H692   1.083       .  S
C693        C694   1.411       .  A
C693        C698   1.405       .  A
C693        H703   1.082       .  S
C694        C699   1.499       .  S
C694        C695   1.407       .  A
C695        C696   1.396       .  A
C695        H700   1.082       .  S
C696        C697   1.406       .  A
C696        H701   1.083       .  S
C697        C698   1.406       .  A
C698        H702   1.083       .  S
C699        C704   1.408       .  A
C699        C708   1.410       .  A
C704        C705   1.401       .  A
C704        H709   1.082       .  S
C705        C706   1.406       .  A
C705        H710   1.083       .  S
C706        C707   1.404       .  A
C707        C708   1.400       .  A
C707        H711   1.083       .  S
C708        H712   1.082       .  S
C713        C714   1.407       .  A
C713        C718   1.401       .  A
C713        H723   1.083       .  S
C714        C719   1.489       .  S
C714        C715   1.407       .  A
C715        C716   1.397       .  A
C715        H720   1.083       .  S
C716        C717   1.405       .  A
C716        H721   1.083       .  S
C717        C718   1.407       .  A
C718        H722   1.083       .  S
C719        C724   1.409       .  A
C719        C728   1.405       .  A
C724        C725   1.405       .  A
C724        H729   1.083       .  S
C725        C726   1.405       .  A
C725        H730   1.083       .  S
C726        C727   1.405       .  A
C727        C728   1.393       .  A
C727        H731   1.084       .  S
C728        H732   1.083       .  S
C733        C734   1.406       .  A
C733        C738   1.405       .  A
C733        H743   1.083       .  S
C734        C739   1.480       .  S
C734        C735   1.401       .  A
C735        C736   1.395       .  A
C735        H740   1.083       .  S
C736        C737   1.407       .  A
C736        H741   1.083       .  S
C737        C738   1.406       .  A
C738        H742   1.083       .  S
C739        C744   1.401       .  A
C739        C748   1.407       .  A
C744        C745   1.397       .  A
C744        H749   1.083       .  S
C745        C746   1.406       .  A
C745        H750   1.084       .  S
C746        C747   1.403       .  A
C747        C748   1.403       .  A
C747        H751   1.083       .  S
C748        H752   1.083       .  S
C753        C754   1.404   1_556  A
C753        C758   1.394       .  A
C753        H763   1.083       .  S
C754        C759   1.484       .  S
C754        C755   1.406       .  A
C755        C756   1.401   1_554  A
C755        H760   1.082       .  S
C756        C757   1.406       .  A
C756        H761   1.083       .  S
C757        C758   1.406       .  A
C758        H762   1.083       .  S
C759        C764   1.405       .  A
C759        C768   1.405       .  A
C764        C765   1.400       .  A
C764        H769   1.083       .  S
C765        C766   1.407       .  A
C765        H770   1.083       .  S
C766        C767   1.406       .  A
C767        C768   1.397       .  A
C767        H771   1.083       .  S
C768        H772   1.083       .  S
C773        C774   1.409       .  A
C773        C778   1.400       .  A
C773        H783   1.082       .  S
C774        C779   1.499       .  S
C774        C775   1.410       .  A
C775        C776   1.402       .  A
C775        H780   1.082       .  S
C776        C777   1.405       .  A
C776        H781   1.083       .  S
C777        C778   1.406       .  A
C778        H782   1.084       .  S
C779        C784   1.408       .  A
C779        C788   1.410       .  A
C784        C785   1.398       .  A
C784        H789   1.082       .  S
C785        C786   1.407       .  A
C785        H790   1.083       .  S
C786        C787   1.405       .  A
C787        C788   1.403       .  A
C787        H791   1.083       .  S
C788        H792   1.082       .  S
C793        C794   1.405       .  A
C793        C798   1.396       .  A
C793        H803   1.083       .  S
C794        C799   1.489       .  S
C794        C795   1.408       .  A
C795        C796   1.402       .  A
C795        H800   1.083       .  S
C796        C797   1.405       .  A
C796        H801   1.083       .  S
C797        C798   1.406       .  A
C798        H802   1.083       .  S
C799        C804   1.406       .  A
C799        C808   1.407       .  A
C804        C805   1.395       .  A
C804        H809   1.083       .  S
C805        C806   1.404       .  A
C805        H810   1.083       .  S
C806        C807   1.405       .  A
C807        C808   1.402       .  A
C807        H811   1.083       .  S
C808        H812   1.083       .  S
C813        C814   1.410       .  A
C813        C818   1.398       .  A
C813        H823   1.083       .  S
C814        C819   1.479   1_565  S
C814        C815   1.401       .  A
C815        C816   1.390       .  A
C815        H820   1.083   1_565  S
C816        C817   1.405       .  A
C816        H821   1.084       .  S
C817        C818   1.400       .  A
C818        H822   1.083       .  S
C819        C824   1.399       .  A
C819        C828   1.410       .  A
C824        C825   1.387       .  A
C824        H829   1.083   1_545  S
C825        C826   1.407       .  A
C825        H830   1.083       .  S
C826        C827   1.402       .  A
C827        C828   1.400       .  A
C827        H831   1.083       .  S
C828        H832   1.083       .  S
C833        C834   1.404       .  A
C833        C838   1.396       .  A
C833        H843   1.083       .  S
C834        C839   1.483       .  S
C834        C835   1.405       .  A
C835        C836   1.403       .  A
C835        H840   1.083       .  S
C836        C837   1.408       .  A
C836        H841   1.082       .  S
C837        C838   1.407       .  A
C838        H842   1.083       .  S
C839        C844   1.403   1_556  A
C839        C848   1.405       .  A
C844        C845   1.395       .  A
C844        H849   1.084       .  S
C845        C846   1.406       .  A
C845        H850   1.083       .  S
C846        C847   1.408       .  A
C847        C848   1.405   1_554  A
C847        H851   1.083       .  S
C848        H852   1.083       .  S
C853        C854   1.408   1_565  A
C853        C858   1.394       .  A
C853        H863   1.082       .  S
C854        C859   1.481   1_556  S
C854        C855   1.405       .  A
C855        C856   1.390       .  A
C855        H860   1.082       .  S
C856        C857   1.402   1_545  A
C856        H861   1.083       .  S
C857        C858   1.402       .  A
C858        H862   1.084       .  S
C859        C864   1.405       .  A
C859        C868   1.408       .  A
C864        C865   1.389       .  A
C864        H869   1.081       .  S
C865        C866   1.403       .  A
C865        H870   1.083       .  S
C866        C867   1.402       .  A
C867        C868   1.395       .  A
C867        H871   1.083   1_545  S
C868        H872   1.082   1_544  S
C873        C874   1.407       .  A
C873        C878   1.408       .  A
C873        H883   1.083       .  S
C874        C879   1.490       .  S
C874        C875   1.405       .  A
C875        C876   1.394       .  A
C875        H880   1.083       .  S
C876        C877   1.405       .  A
C876        H881   1.083       .  S
C877        C878   1.410       .  A
C878        H882   1.082       .  S
C879        C884   1.410       .  A
C879        C888   1.401       .  A
C884        C885   1.412       .  A
C884        H889   1.083       .  S
C885        C886   1.409       .  A
C885        H890   1.083       .  S
C886        C887   1.408       .  A
C887        C888   1.390       .  A
C887        H891   1.083       .  S
C888        H892   1.083       .  S
C893        C894   1.409       .  A
C893        C898   1.397       .  A
C893        H903   1.082       .  S
C894        C899   1.499       .  S
C894        C895   1.410       .  A
C895        C896   1.404       .  A
C895        H900   1.082       .  S
C896        C897   1.405       .  A
C896        H901   1.083       .  S
C897        C898   1.404       .  A
C898        H902   1.083       .  S
C899        C904   1.410       .  A
C899        C908   1.411       .  A
C904        C905   1.399       .  A
C904        H909   1.082       .  S
C905        C906   1.402       .  A
C905        H910   1.083       .  S
C906        C907   1.402       .  A
C907        C908   1.402       .  A
C907        H911   1.083       .  S
C908        H912   1.082       .  S
C913        C914   1.408       .  A
C913        C918   1.400       .  A
C913        H923   1.082       .  S
C914        C919   1.494       .  S
C914        C915   1.408       .  A
C915        C916   1.398       .  A
C915        H920   1.083       .  S
C916        C917   1.405       .  A
C916        H921   1.082       .  S
C917        C918   1.406       .  A
C918        H922   1.084       .  S
C919        C924   1.410       .  A
C919        C928   1.407       .  A
C924        C925   1.402       .  A
C924        H929   1.082       .  S
C925        C926   1.404       .  A
C925        H930   1.083       .  S
C926        C927   1.406       .  A
C927        C928   1.397       .  A
C927        H931   1.084       .  S
C928        H932   1.082       .  S
C933        C934   1.407       .  A
C933        C938   1.398       .  A
C933        H943   1.083       .  S
C934        C939   1.491       .  S
C934        C935   1.408       .  A
C935        C936   1.399       .  A
C935        H940   1.083       .  S
C936        C937   1.405       .  A
C936        H941   1.083       .  S
C937        C938   1.406       .  A
C938        H942   1.083       .  S
C939        C944   1.408       .  A
C939        C948   1.406       .  A
C944        C945   1.400       .  A
C944        H949   1.083       .  S
C945        C946   1.405       .  A
C945        H950   1.083   1_455  S
C946        C947   1.406       .  A
C947        C948   1.397       .  A
C947        H951   1.083       .  S
C948        H952   1.082       .  S
C953        C954   1.405       .  A
C953        C958   1.402       .  A
C953        H963   1.083       .  S
C954        C959   1.480       .  S
C954        C955   1.402       .  A
C955        C956   1.397       .  A
C955        H960   1.083       .  S
C956        C957   1.407       .  A
C956        H961   1.083       .  S
C957        C958   1.407       .  A
C958        H962   1.083       .  S
C959        C964   1.403       .  A
C959        C968   1.404       .  A
C964        C965   1.398       .  A
C964        H969   1.083       .  S
C965        C966   1.406       .  A
C965        H970   1.083       .  S
C966        C967   1.406       .  A
C967        C968   1.401       .  A
C967        H971   1.083       .  S
C968        H972   1.083       .  S
C973        C974   1.410       .  A
C973        C978   1.399       .  A
C973        H983   1.082       .  S
C974        C979   1.497       .  S
C974        C975   1.409       .  A
C975        C976   1.404       .  A
C975        H980   1.082       .  S
C976        C977   1.405       .  A
C976        H981   1.083       .  S
C977        C978   1.401       .  A
C978        H982   1.083       .  S
C979        C984   1.406       .  A
C979        C988   1.411       .  A
C984        C985   1.393       .  A
C984        H989   1.082       .  S
C985        C986   1.405       .  A
C985        H990   1.083       .  S
C986        C987   1.407       .  A
C987        C988   1.409       .  A
C987        H991   1.083   1_545  S
C988        H992   1.082       .  S
C993        C994   1.410       .  A
C993        C998   1.400       .  A
C993       H1003   1.082       .  S
C994        C999   1.498       .  S
C994        C995   1.408       .  A
C995        C996   1.401       .  A
C995       H1000   1.082       .  S
C996        C997   1.406       .  A
C996       H1001   1.084       .  S
C997        C998   1.404       .  A
C998       H1002   1.083       .  S
C999       C1004   1.407   1_556  A
C999       C1008   1.410       .  A
C1004      C1005   1.397       .  A
C1004      H1009   1.082       .  S
C1005      C1006   1.406       .  A
C1005      H1010   1.083       .  S
C1006      C1007   1.406       .  A
C1007      C1008   1.405   1_554  A
C1007      H1011   1.083       .  S
C1008      H1012   1.082       .  S
C1013      C1014   1.406       .  A
C1013      C1018   1.395       .  A
C1013      H1023   1.083       .  S
C1014      C1019   1.490       .  S
C1014      C1015   1.409       .  A
C1015      C1016   1.400       .  A
C1015      H1020   1.082       .  S
C1016      C1017   1.403       .  A
C1016      H1021   1.083       .  S
C1017      C1018   1.405       .  A
C1018      H1022   1.084       .  S
C1019      C1024   1.409       .  A
C1019      C1028   1.405       .  A
C1024      C1025   1.400   1_655  A
C1024      H1029   1.083   1_655  S
C1025      C1026   1.404   1_455  A
C1025      H1030   1.083       .  S
C1026      C1027   1.406       .  A
C1027      C1028   1.394       .  A
C1027      H1031   1.083       .  S
C1028      H1032   1.082       .  S
C1033      C1034   1.405       .  A
C1033      C1038   1.391       .  A
C1033      H1043   1.082       .  S
C1034      C1039   1.495       .  S
C1034      C1035   1.411       .  A
C1035      C1036   1.408   1_565  A
C1035      H1040   1.082   1_565  S
C1036      C1037   1.406       .  A
C1036      H1041   1.083       .  S
C1037      C1038   1.406   1_545  A
C1038      H1042   1.083       .  S
C1039      C1044   1.410       .  A
C1039      C1048   1.408       .  A
C1044      C1045   1.398       .  A
C1044      H1049   1.083       .  S
C1045      C1046   1.402       .  A
C1045      H1050   1.083       .  S
C1046      C1047   1.403       .  A
C1047      C1048   1.403       .  A
C1047      H1051   1.083       .  S
C1048      H1052   1.082       .  S
C1053      C1054   1.408       .  A
C1053      C1058   1.403       .  A
C1053      H1063   1.084       .  S
C1054      C1059   1.479       .  S
C1054      C1055   1.401       .  A
C1055      C1056   1.394       .  A
C1055      H1060   1.083       .  S
C1056      C1057   1.404       .  A
C1056      H1061   1.084       .  S
C1057      C1058   1.403       .  A
C1058      H1062   1.083       .  S
C1059      C1064   1.402       .  A
C1059      C1068   1.406       .  A
C1064      C1065   1.396       .  A
C1064      H1069   1.083       .  S
C1065      C1066   1.406       .  A
C1065      H1070   1.083       .  S
C1066      C1067   1.404       .  A
C1067      C1068   1.401       .  A
C1067      H1071   1.083       .  S
C1068      H1072   1.083       .  S
C1073      C1074   1.404       .  A
C1073      C1078   1.399       .  A
C1073      H1083   1.083       .  S
C1074      C1079   1.484       .  S
C1074      C1075   1.405       .  A
C1075      C1076   1.401       .  A
C1075      H1080   1.083       .  S
C1076      C1077   1.406       .  A
C1076      H1081   1.083       .  S
C1077      C1078   1.406       .  A
C1078      H1082   1.083       .  S
C1079      C1084   1.404   1_554  A
C1079      C1088   1.404       .  A
C1084      C1085   1.400       .  A
C1084      H1089   1.083       .  S
C1085      C1086   1.407       .  A
C1085      H1090   1.083       .  S
C1086      C1087   1.408       .  A
C1087      C1088   1.401   1_556  A
C1087      H1091   1.083   1_556  S
C1088      H1092   1.083       .  S
C1093      C1094   1.409       .  A
C1093      C1098   1.400       .  A
C1093      H1103   1.082       .  S
C1094      C1099   1.498       .  S
C1094      C1095   1.408       .  A
C1095      C1096   1.402       .  A
C1095      H1100   1.082       .  S
C1096      C1097   1.406       .  A
C1096      H1101   1.083       .  S
C1097      C1098   1.406       .  A
C1098      H1102   1.083       .  S
C1099      C1104   1.408       .  A
C1099      C1108   1.410       .  A
C1104      C1105   1.399       .  A
C1104      H1109   1.082       .  S
C1105      C1106   1.406       .  A
C1105      H1110   1.083       .  S
C1106      C1107   1.404   1_655  A
C1107      C1108   1.402   1_455  A
C1107      H1111   1.083       .  S
C1108      H1112   1.082   1_655  S
C1113      C1114   1.409       .  A
C1113      C1118   1.405       .  A
C1113      H1123   1.082       .  S
C1114      C1119   1.501       .  S
C1114      C1115   1.409       .  A
C1115      C1116   1.399       .  A
C1115      H1120   1.082       .  S
C1116      C1117   1.404       .  A
C1116      H1121   1.083       .  S
C1117      C1118   1.408       .  A
C1118      H1122   1.083       .  S
C1119      C1124   1.411       .  A
C1119      C1128   1.407       .  A
C1124      C1125   1.407       .  A
C1124      H1129   1.082       .  S
C1125      C1126   1.408       .  A
C1125      H1130   1.083       .  S
C1126      C1127   1.406       .  A
C1127      C1128   1.397       .  A
C1127      H1131   1.083       .  S
C1128      H1132   1.082       .  S
C1133      C1134   1.407   1_565  A
C1133      C1138   1.396       .  A
C1133      H1143   1.082       .  S
C1134      C1139   1.481   1_455  S
C1134      C1135   1.405       .  A
C1135      C1136   1.392       .  A
C1135      H1140   1.083       .  S
C1136      C1137   1.402   1_545  A
C1136      H1141   1.083       .  S
C1137      C1138   1.403       .  A
C1138      H1142   1.084       .  S
C1139      C1144   1.407   1_545  A
C1139      C1148   1.404       .  A
C1144      C1145   1.397   1_565  A
C1144      H1149   1.083       .  S
C1145      C1146   1.404       .  A
C1145      H1150   1.083   1_545  S
C1146      C1147   1.405       .  A
C1147      C1148   1.391       .  A
C1147      H1151   1.084       .  S
C1148      H1152   1.082   1_655  S
C1153      C1154   1.405       .  A
C1153      C1158   1.401       .  A
C1153      H1163   1.083       .  S
C1154      C1159   1.487       .  S
C1154      C1155   1.405       .  A
C1155      C1156   1.401       .  A
C1155      H1160   1.083       .  S
C1156      C1157   1.406       .  A
C1156      H1161   1.083       .  S
C1157      C1158   1.407       .  A
C1158      H1162   1.083       .  S
C1159      C1164   1.404       .  A
C1159      C1168   1.407       .  A
C1164      C1165   1.399       .  A
C1164      H1169   1.083       .  S
C1165      C1166   1.407       .  A
C1165      H1170   1.083       .  S
C1166      C1167   1.406       .  A
C1167      C1168   1.403       .  A
C1167      H1171   1.083       .  S
C1168      H1172   1.083       .  S
C1173      C1174   1.411   1_545  A
C1173      C1178   1.405       .  A
C1173      H1183   1.082       .  S
C1174      C1179   1.498       .  S
C1174      C1175   1.408       .  A
C1175      C1176   1.397       .  A
C1175      H1180   1.083       .  S
C1176      C1177   1.402   1_565  A
C1176      H1181   1.084       .  S
C1177      C1178   1.403       .  A
C1178      H1182   1.083       .  S
C1179      C1184   1.410       .  A
C1179      C1188   1.407       .  A
C1184      C1185   1.407       .  A
C1184      H1189   1.083       .  S
C1185      C1186   1.407       .  A
C1185      H1190   1.083       .  S
C1186      C1187   1.405       .  A
C1187      C1188   1.395       .  A
C1187      H1191   1.083       .  S
C1188      H1192   1.082       .  S
C1193      C1194   1.404   1_554  A
C1193      C1198   1.398       .  A
C1193      H1203   1.083       .  S
C1194      C1199   1.482       .  S
C1194      C1195   1.404       .  A
C1195      C1196   1.402   1_556  A
C1195      H1200   1.083       .  S
C1196      C1197   1.408       .  A
C1196      H1201   1.083       .  S
C1197      C1198   1.405       .  A
C1198      H1202   1.083       .  S
C1199      C1204   1.404       .  A
C1199      C1208   1.405       .  A
C1204      C1205   1.398       .  A
C1204      H1209   1.083       .  S
C1205      C1206   1.406       .  A
C1205      H1210   1.082       .  S
C1206      C1207   1.407       .  A
C1207      C1208   1.402       .  A
C1207      H1211   1.083       .  S
C1208      H1212   1.083       .  S
C1213      C1214   1.408   1_654  A
C1213      C1218   1.396   1_554  A
C1213      H1223   1.083       .  S
C1214      C1219   1.475   1_556  S
C1214      C1215   1.401       .  A
C1215      C1216   1.389       .  A
C1215      H1220   1.083       .  S
C1216      C1217   1.405       .  A
C1216      H1221   1.084       .  S
C1217      C1218   1.399   1_455  A
C1218      H1222   1.083       .  S
C1219      C1224   1.400       .  A
C1219      C1228   1.409   1_545  A
C1224      C1225   1.387   1_545  A
C1224      H1229   1.083       .  S
C1225      C1226   1.406       .  A
C1225      H1230   1.083       .  S
C1226      C1227   1.401       .  A
C1227      C1228   1.397       .  A
C1227      H1231   1.083       .  S
C1228      H1232   1.083   1_554  S
C1233      C1234   1.402       .  A
C1233      C1238   1.392       .  A
C1233      H1243   1.083       .  S
C1234      C1239   1.491       .  S
C1234      C1235   1.411       .  A
C1235      C1236   1.410       .  A
C1235      H1240   1.082       .  S
C1236      C1237   1.406       .  A
C1236      H1241   1.083       .  S
C1237      C1238   1.408       .  A
C1238      H1242   1.083       .  S
C1239      C1244   1.406       .  A
C1239      C1248   1.407       .  A
C1244      C1245   1.395       .  A
C1244      H1249   1.083       .  S
C1245      C1246   1.405       .  A
C1245      H1250   1.083       .  S
C1246      C1247   1.409       .  A
C1247      C1248   1.407       .  A
C1247      H1251   1.083       .  S
C1248      H1252   1.083       .  S
C1253      C1254   1.408       .  A
C1253      C1258   1.399       .  A
C1253      H1263   1.083       .  S
C1254      C1259   1.494       .  S
C1254      C1255   1.407       .  A
C1255      C1256   1.402       .  A
C1255      H1260   1.082       .  S
C1256      C1257   1.408       .  A
C1256      H1261   1.083       .  S
C1257      C1258   1.405       .  A
C1258      H1262   1.083       .  S
C1259      C1264   1.407       .  A
C1259      C1268   1.409       .  A
C1264      C1265   1.399   1_554  A
C1264      H1269   1.082       .  S
C1265      C1266   1.405       .  A
C1265      H1270   1.083       .  S
C1266      C1267   1.407       .  A
C1267      C1268   1.403   1_556  A
C1267      H1271   1.083       .  S
C1268      H1272   1.083       .  S
C1273      C1274   1.406       .  A
C1273      C1278   1.398       .  A
C1273      H1283   1.082       .  S
C1274      C1279   1.496       .  S
C1274      C1275   1.410       .  A
C1275      C1276   1.404       .  A
C1275      H1280   1.082       .  S
C1276      C1277   1.405       .  A
C1276      H1281   1.083   1_455  S
C1277      C1278   1.406       .  A
C1278      H1282   1.083       .  S
C1279      C1284   1.409       .  A
C1279      C1288   1.407       .  A
C1284      C1285   1.400       .  A
C1284      H1289   1.082       .  S
C1285      C1286   1.405       .  A
C1285      H1290   1.083       .  S
C1286      C1287   1.407       .  A
C1287      C1288   1.403       .  A
C1287      H1291   1.083       .  S
C1288      H1292   1.082       .  S
C1293      C1294   1.407       .  A
C1293      C1298   1.393       .  A
C1293      H1303   1.082       .  S
C1294      C1299   1.495       .  S
C1294      C1295   1.410       .  A
C1295      C1296   1.405       .  A
C1295      H1300   1.082       .  S
C1296      C1297   1.405       .  A
C1296      H1301   1.083       .  S
C1297      C1298   1.405       .  A
C1298      H1302   1.084       .  S
C1299      C1304   1.408       .  A
C1299      C1308   1.411       .  A
C1304      C1305   1.397       .  A
C1304      H1309   1.082       .  S
C1305      C1306   1.402       .  A
C1305      H1310   1.084       .  S
C1306      C1307   1.401       .  A
C1307      C1308   1.402       .  A
C1307      H1311   1.083   1_545  S
C1308      H1312   1.082       .  S
