geometry optimzed in LAMMPS
_audit_creation_date              2020-12-01 
_audit_creation_method            'lammps2cif' 
_symmetry_space_group_name_H-M    'P1' 
_symmetry_Int_Tables_number       1 
_symmetry_cell_setting            triclinic 
loop_ 
_symmetry_equiv_pos_as_xyz 
  x,y,z 
_cell_length_a                    75.89189842 
_cell_length_b                    75.6919558760921 
_cell_length_c                    30.089434189431408 
_cell_angle_alpha                 89.98086340985157 
_cell_angle_beta                  89.95480372425357 
_cell_angle_gamma                 90.06975560295324 
loop_ 
_atom_site_label 
_atom_site_type_symbol 
_atom_site_fract_x 
_atom_site_fract_y 
_atom_site_fract_z 
_atom_site_charge 
Fe1        Fe  0.84352527  0.24977579  0.46289471     1.65800
Fe2        Fe  0.88128276  0.23044507  0.49997760     1.73200
Fe3        Fe  0.85009929  0.20534135  0.44655206     1.54400
O4          O  0.82465338  0.20816513  0.46994560    -0.82000
O5          O  0.89428526  0.21636502  0.45204518    -0.80300
O6          O  0.82089847  0.23698305  0.48083778    -0.84500
O7          O  0.83961075  0.24483115  0.39634581    -0.79400
O8          O  0.85586552  0.19206352  0.50455753    -0.81200
O9          O  0.88874113  0.25314220  0.46733783    -0.83900
C10         C  0.84024466  0.23133600  0.37138326     0.96900
C11         C  0.81545688  0.22121946  0.48225744     1.04300
O12         O  0.85829751  0.22850105  0.46983679    -1.12900
O13         O  0.87113094  0.24483428  0.55181671    -0.75300
O14         O  0.84607909  0.25696485  0.52859711    -0.78800
O15         O  0.84362427  0.21596537  0.38586592    -0.79500
C16         C  0.85765853  0.25439743  0.55824794     0.95800
O17         O  0.86403914  0.26595928  0.44481439    -0.77500
O18         O  0.87704076  0.20797784  0.53662374    -0.82600
C19         C  0.89011375  0.20442085  0.42457620     0.98400
C20         C  0.86717116  0.19445969  0.53494772     1.04300
O21         O  0.87440129  0.19898321  0.41980461    -0.78300
C22         C  0.88062513  0.26572865  0.44869115     1.02600
Fe23       Fe  0.65861510  0.25840603  0.57776470     1.65800
Fe24       Fe  0.62348046  0.23840705  0.52970178     1.73200
Fe25       Fe  0.65323936  0.21400378  0.58852613     1.54400
O26         O  0.67803176  0.21744120  0.56257007    -0.82000
O27         O  0.60976749  0.22157839  0.57125431    -0.80300
O28         O  0.68285636  0.24594162  0.57420171    -0.84500
O29         O  0.65678621  0.25391318  0.64435744    -0.79400
O30         O  0.64700568  0.20007429  0.53120012    -0.81200
O31         O  0.61319055  0.25882743  0.56594762    -0.83900
C32         C  0.65899122  0.23996286  0.66687160     0.96900
C33         C  0.68823364  0.23069292  0.56335113     1.04300
O34         O  0.64506015  0.23688953  0.56520916    -1.12900
O35         O  0.63482752  0.25563305  0.48433821    -0.75300
O36         O  0.66091891  0.26427040  0.51142623    -0.78800
O37         O  0.66049205  0.22470467  0.64961111    -0.79500
C38         C  0.64964960  0.26334769  0.48040650     0.95800
O39         O  0.63680096  0.27458723  0.58395350    -0.77500
O40         O  0.63095624  0.21804567  0.48915677    -0.82600
C41         C  0.61342574  0.21175316  0.60419941     0.98400
C42         C  0.63907696  0.20364554  0.49514195     1.04300
O43         O  0.62907940  0.20833952  0.61618506    -0.78300
C44         C  0.62025069  0.27268735  0.58106328     1.02600
Fe45       Fe  0.84500129  0.27891011  0.96479266     1.65800
Fe46       Fe  0.88151279  0.29735025  0.01156236     1.73200
Fe47       Fe  0.85428502  0.32277011  0.94773729     1.54400
O48         O  0.84820220  0.31170876  0.88627291    -0.82000
O49         O  0.87432606  0.31828344  0.05090089    -0.80300
O50         O  0.84469642  0.28289467  0.89793607    -0.84500
O51         O  0.82180667  0.29290896  0.97318800    -0.79400
O52         O  0.87944702  0.32731301  0.92400320    -0.81200
O53         O  0.86971665  0.28081868  0.05677840    -0.83900
C54         C  0.81760704  0.30911381  0.97528655     0.96900
C55         C  0.84544273  0.29608377  0.87227611     1.04300
O56         O  0.86025156  0.29970414  0.97464185    -1.12900
O57         O  0.89066738  0.27607049  0.97558380    -0.75300
O58         O  0.86610848  0.26215447  0.95445128    -0.78800
O59         O  0.82847482  0.32154176  0.96863891    -0.79500
C60         C  0.88276234  0.26308418  0.95780689     0.95800
O61         O  0.84380859  0.27214852  0.03084684    -0.77500
O62         O  0.89675981  0.31375267  0.97279041    -0.82600
C63         C  0.86682730  0.33293356  0.04310376     0.98400
C64         C  0.89452354  0.32407007  0.94014060     1.04300
O65         O  0.85975535  0.33653954  0.00583978    -0.78300
C66         C  0.85539315  0.27244256  0.06110545     1.02600
Fe67       Fe  0.66493531  0.28425562  0.07783612     1.65800
Fe68       Fe  0.62880112  0.30128176  0.02712972     1.73200
Fe69       Fe  0.65537794  0.32803091  0.08956871     1.54400
O70         O  0.66209559  0.31781733  0.15136773    -0.82000
O71         O  0.63515467  0.32256575  0.98731250    -0.80300
O72         O  0.66205281  0.28841022  0.14461813    -0.84500
O73         O  0.68796179  0.29879093  0.07570364    -0.79400
O74         O  0.63020780  0.33169550  0.11349769    -0.81200
O75         O  0.64194545  0.28492196  0.98352462    -0.83900
C76         C  0.69221380  0.31471646  0.06822327     0.96900
C77         C  0.66200017  0.30236407  0.16785054     1.04300
O78         O  0.64968789  0.30458609  0.06466311    -1.12900
O79         O  0.61981359  0.27976670  0.06261895    -0.75300
O80         O  0.64451847  0.26622553  0.08233004    -0.78800
O81         O  0.68106718  0.32714730  0.06738698    -0.79500
C82         C  0.62790050  0.26653998  0.07840309     0.95800
O83         O  0.66845418  0.27844774  0.01153679    -0.77500
O84         O  0.61295968  0.31700419  0.06615666    -0.82600
C85         C  0.64135361  0.33780317  0.99573947     0.98400
C86         C  0.61513823  0.32743092  0.09866568     1.04300
O87         O  0.64890950  0.34147594  0.03213920    -0.78300
C88         C  0.65710363  0.27792829  0.98062841     1.02600
Fe89       Fe  0.51776149  0.43395997  0.71063583     1.65800
Fe90       Fe  0.53073116  0.39546413  0.75643504     1.73200
Fe91       Fe  0.55961627  0.41941027  0.69562169     1.54400
O92         O  0.55008887  0.43002515  0.63654697    -0.82000
O93         O  0.55152223  0.40026933  0.79825066    -0.80300
O94         O  0.52087811  0.43185781  0.64349514    -0.84500
O95         O  0.53533473  0.45498659  0.71327149    -0.79400
O96         O  0.55904307  0.39511560  0.66555479    -0.81200
O97         O  0.51439366  0.40917916  0.79980439    -0.83900
C98         C  0.55150675  0.45668440  0.72339169     0.96900
C99         C  0.53477292  0.43206397  0.62016778     1.04300
O100        O  0.53606559  0.41628550  0.72093651    -1.12900
O101        O  0.50970030  0.38903786  0.71727325    -0.75300
O102        O  0.49749048  0.41537747  0.70647554    -0.78800
O103        O  0.56218494  0.44386190  0.72423344    -0.79500
C104        C  0.49678834  0.39858292  0.70574653     0.95800
O105        O  0.51323287  0.43722671  0.77742572    -0.77500
O106        O  0.54611225  0.37875347  0.71780232    -0.82600
C107        C  0.56755985  0.40300198  0.78839980     0.98400
C108        C  0.55507838  0.38026482  0.68229343     1.04300
O109        O  0.57234471  0.40875165  0.75055656    -0.78300
C110        C  0.50995762  0.42521634  0.80559728     1.02600
Fe111      Fe  0.52089975  0.60823452  0.83303047     1.65800
Fe112      Fe  0.53946476  0.64540477  0.78910412     1.73200
Fe113      Fe  0.56478696  0.61695871  0.85042193     1.54400
O114        O  0.55363632  0.61103810  0.91159405    -0.82000
O115        O  0.56149109  0.63988949  0.75201384    -0.80300
O116        O  0.52483894  0.60725975  0.90032544    -0.84500
O117        O  0.53454455  0.58516111  0.82363869    -0.79400
O118        O  0.57002552  0.64217472  0.87371505    -0.81200
O119        O  0.52472210  0.63331834  0.74051262    -0.83900
C120        C  0.55048313  0.58033709  0.82291783     0.96900
C121        C  0.53813133  0.60795401  0.92574467     1.04300
O122        O  0.54176245  0.62354582  0.82425543    -1.12900
O123        O  0.51716912  0.65366372  0.82234138    -0.75300
O124        O  0.50384841  0.62892906  0.84375353    -0.78800
O125        O  0.56310961  0.59091542  0.83025057    -0.79500
C126        C  0.50416669  0.64556540  0.83926102     0.95800
O127        O  0.51482723  0.60763541  0.76648093    -0.77500
O128        O  0.55424928  0.66050390  0.83190388    -0.82600
C129        C  0.57564043  0.63129792  0.75774902     0.98400
C130        C  0.56575301  0.65764472  0.86153066     1.04300
O131        O  0.57862398  0.62222590  0.79249202    -0.78300
C132        C  0.51671180  0.61875201  0.73536480     1.02600
Fe133      Fe  0.49047375  0.42825475  0.21225013     1.65800
Fe134      Fe  0.47273235  0.39094334  0.25369386     1.73200
Fe135      Fe  0.44707416  0.41921165  0.19476566     1.54400
O136        O  0.44767527  0.44411960  0.22289777    -0.82000
O137        O  0.45609886  0.37658504  0.21323386    -0.80300
O138        O  0.47598434  0.45132772  0.21594669    -0.84500
O139        O  0.48752349  0.42741042  0.14488670    -0.79400
O140        O  0.43302587  0.41034137  0.25018326    -0.81200
O141        O  0.49316359  0.38252429  0.21454891    -0.83900
C142        C  0.47400797  0.42855972  0.12029867     0.96900
C143        C  0.46004835  0.45539277  0.22350796     1.04300
O144        O  0.47001630  0.41281690  0.22015876    -1.12900
O145        O  0.48990570  0.40206439  0.29927362    -0.75300
O146        O  0.49468701  0.42997280  0.27941393    -0.78800
O147        O  0.45833009  0.42828625  0.13555375    -0.79500
C148        C  0.49588441  0.41743862  0.30716981     0.95800
O149        O  0.50834606  0.40753400  0.20729148    -0.77500
O150        O  0.45243325  0.39758950  0.29518878    -0.82600
C151        C  0.44709565  0.37953983  0.17854675     0.98400
C152        C  0.43700790  0.40319329  0.28714444     1.04300
O153        O  0.44403316  0.39500608  0.16431833    -0.78300
C154        C  0.50709280  0.39083053  0.20476490     1.02600
Fe155      Fe  0.48957438  0.61025672  0.33272297     1.65800
Fe156      Fe  0.47043330  0.64697001  0.28860494     1.73200
Fe157      Fe  0.44550986  0.61780772  0.34936352     1.54400
O158        O  0.44856148  0.59144210  0.33106927    -0.82000
O159        O  0.45710484  0.66183814  0.33527927    -0.80300
O160        O  0.47685650  0.58754939  0.31354461    -0.84500
O161        O  0.48388392  0.60552894  0.39769747    -0.79400
O162        O  0.43193944  0.62162175  0.29029693    -0.81200
O163        O  0.49388547  0.65477423  0.31807565    -0.83900
C164        C  0.47136127  0.60810877  0.42462551     0.96900
C165        C  0.46115340  0.58195363  0.31666453     1.04300
O166        O  0.46845231  0.62502277  0.32355068    -1.12900
O167        O  0.48356798  0.63460494  0.23727863    -0.75300
O168        O  0.49848065  0.61277279  0.26870831    -0.78800
O169        O  0.45636814  0.61347265  0.41177020    -0.79500
C170        C  0.49444127  0.62191194  0.23510875     0.95800
O171        O  0.50468297  0.63133677  0.35355140    -0.77500
O172        O  0.44743633  0.64225946  0.25472286    -0.82600
C173        C  0.44495897  0.65874508  0.36326535     0.98400
C174        C  0.43402945  0.63233750  0.25822482     1.04300
O175        O  0.43925243  0.64319772  0.37061553    -0.78300
C176        C  0.50518764  0.64758898  0.34336816     1.02600
Fe177      Fe  0.34752037  0.75492656  0.97216818     1.65800
Fe178      Fe  0.38330243  0.73609182  0.01957166     1.73200
Fe179      Fe  0.35637949  0.71126099  0.95451046     1.54400
O180        O  0.32943357  0.71436910  0.96431850    -0.82000
O181        O  0.39949769  0.72540125  0.97197943    -0.80300
O182        O  0.32527371  0.74142954  0.99150954    -0.84500
O183        O  0.34328035  0.74895823  0.90614869    -0.79400
O184        O  0.35735313  0.69777300  0.01402918    -0.81200
O185        O  0.39004562  0.76109183  0.99659844    -0.83900
C186        C  0.34828714  0.73696082  0.87955923     0.96900
C187        C  0.31982710  0.72596377  0.98290785     1.04300
O188        O  0.36243253  0.73408806  0.98193776    -1.12900
O189        O  0.36895502  0.74658840  0.07063828    -0.75300
O190        O  0.34964260  0.76388916  0.03685833    -0.78800
O191        O  0.35516678  0.72257542  0.89239133    -0.79500
C192        C  0.35718217  0.75843613  0.07179215     0.95800
O193        O  0.36848883  0.77053708  0.95251273    -0.77500
O194        O  0.37946386  0.71157940  0.04830292    -0.82600
C195        C  0.39744341  0.71173477  0.94812864     0.98400
C196        C  0.36857822  0.69888141  0.04510886     1.04300
O197        O  0.38244668  0.70468642  0.94175022    -0.78300
C198        C  0.38365482  0.77233550  0.96971432     1.02600
Fe199      Fe  0.16447605  0.75026538  0.06545299     1.65800
Fe200      Fe  0.12645331  0.73272511  0.02764810     1.73200
Fe201      Fe  0.15533028  0.70673118  0.08231195     1.54400
O202        O  0.18189898  0.70909795  0.06566618    -0.82000
O203        O  0.11296936  0.72418666  0.08243746    -0.80300
O204        O  0.18572810  0.73666855  0.04176409    -0.84500
O205        O  0.17068345  0.74400898  0.13043725    -0.79400
O206        O  0.15146639  0.69428121  0.02240496    -0.81200
O207        O  0.12211475  0.75842707  0.04818031    -0.83900
C208        C  0.16640389  0.73158401  0.15670321     0.96900
C209        C  0.19119184  0.72103740  0.04727454     1.04300
O210        O  0.14888204  0.72991364  0.05844125    -1.12900
O211        O  0.13909854  0.74153323  0.97161577    -0.75300
O212        O  0.16000152  0.75872513  0.00098653    -0.78800
O213        O  0.15942118  0.71723898  0.14403399    -0.79500
C214        C  0.15108675  0.75319196  0.96803307     0.95800
O215        O  0.14483371  0.76623602  0.09002487    -0.77500
O216        O  0.12655622  0.70736890  0.00193295    -0.82600
C217        C  0.11513858  0.70985489  0.10360241     0.98400
C218        C  0.13747594  0.69472976  0.99959228     1.04300
O219        O  0.12952499  0.70121169  0.10201413    -0.78300
C220        C  0.12957167  0.76905626  0.07467942     1.02600
Fe221      Fe  0.34551607  0.78812731  0.47552326     1.65800
Fe222      Fe  0.38440126  0.80488239  0.51420518     1.73200
Fe223      Fe  0.35719720  0.83087983  0.45082190     1.54400
O224        O  0.34903231  0.81886390  0.39306275    -0.82000
O225        O  0.38188309  0.82878031  0.54637859    -0.80300
O226        O  0.34396180  0.79041876  0.40776417    -0.84500
O227        O  0.32375740  0.80398030  0.48419857    -0.79400
O228        O  0.38206755  0.83262020  0.42306181    -0.81200
O229        O  0.37164280  0.79307971  0.56686139    -0.83900
C230        C  0.32035802  0.82035475  0.48431123     0.96900
C231        C  0.34515549  0.80329039  0.38100451     1.04300
O232        O  0.36237448  0.80800654  0.48025850    -1.12900
O233        O  0.39029663  0.78059566  0.48629079    -0.75300
O234        O  0.36466734  0.76904549  0.46577453    -0.78800
O235        O  0.33170261  0.83210919  0.47513411    -0.79500
C236        C  0.38124942  0.76805006  0.47013161     0.95800
O237        O  0.34540386  0.78384904  0.54300997    -0.77500
O238        O  0.39972805  0.81650338  0.46599421    -0.82600
C239        C  0.37472327  0.84351209  0.53771776     0.98400
C240        C  0.39722151  0.82680333  0.43337809     1.04300
O241        O  0.36508074  0.84611599  0.50403107    -0.78300
C242        C  0.35669026  0.78605139  0.57359640     1.02600
Fe243      Fe  0.16641701  0.77837707  0.56503728     1.65800
Fe244      Fe  0.13050415  0.79592147  0.51549697     1.73200
Fe245      Fe  0.15626622  0.82182128  0.58042236     1.54400
O246        O  0.15768161  0.81085832  0.64281705    -0.82000
O247        O  0.13291271  0.82065089  0.48772020    -0.80300
O248        O  0.17031591  0.78474249  0.63078450    -0.84500
O249        O  0.18848399  0.79223664  0.54599885    -0.79400
O250        O  0.12986897  0.82721700  0.59322473    -0.81200
O251        O  0.14588897  0.78635170  0.46472303    -0.83900
C252        C  0.19366444  0.80772497  0.55543958     0.96900
C253        C  0.16469275  0.79668713  0.65663125     1.04300
O254        O  0.15109544  0.79875030  0.55369833    -1.12900
O255        O  0.12462787  0.77072859  0.53791676    -0.75300
O256        O  0.14558464  0.76279381  0.58535086    -0.78800
O257        O  0.18336465  0.81941975  0.57121324    -0.79500
C258        C  0.13046159  0.76065624  0.56821258     0.95800
O259        O  0.16473224  0.76892837  0.50087102    -0.77500
O260        O  0.11378238  0.80563218  0.56335816    -0.82600
C261        C  0.14338690  0.83366730  0.49000704     0.98400
C262        C  0.11520642  0.81938501  0.58715850     1.04300
O263        O  0.15491905  0.83503579  0.52035320    -0.78300
C264        C  0.15780632  0.77462809  0.46535732     1.02600
Fe265      Fe  0.02143582  0.42688677  0.82260478     1.65800
Fe266      Fe  0.03677114  0.38735824  0.78758583     1.73200
Fe267      Fe  0.06309700  0.41435836  0.84867309     1.54400
O268        O  0.06302211  0.44119150  0.83317725    -0.82000
O269        O  0.04433417  0.37242422  0.84144986    -0.80300
O270        O  0.03750472  0.44676219  0.79919931    -0.84500
O271        O  0.02675952  0.43349491  0.88767875    -0.79400
O272        O  0.07714483  0.40974105  0.79101167    -0.81200
O273        O  0.01094861  0.38453826  0.80813235    -0.83900
C274        C  0.03709570  0.42804189  0.91771109     0.96900
C275        C  0.05293745  0.45121770  0.81085814     1.04300
O276        O  0.04048157  0.40957272  0.81942574    -1.12900
O277        O  0.02878719  0.40016871  0.73061766    -0.75300
O278        O  0.01329514  0.42259558  0.75796480    -0.78800
O279        O  0.05077639  0.41906298  0.90861480    -0.79500
C280        C  0.01781526  0.41268061  0.72593664     0.95800
O281        O  0.00371697  0.40843643  0.84665251    -0.77500
O282        O  0.06214755  0.38691907  0.76306495    -0.82600
C283        C  0.05800186  0.37384418  0.86545297     0.98400
C284        C  0.07575679  0.39666275  0.76482731     1.04300
O285        O  0.06665775  0.38820328  0.86807870    -0.78300
C286        C  0.00050086  0.39282326  0.83364527     1.02600
Fe287      Fe  0.02271255  0.60288784  0.70893506     1.65800
Fe288      Fe  0.03991873  0.64132603  0.74579394     1.73200
Fe289      Fe  0.06531932  0.61354720  0.68473872     1.54400
O290        O  0.06414169  0.58672731  0.70056401    -0.82000
O291        O  0.04765384  0.65593439  0.69188283    -0.80300
O292        O  0.03758210  0.58185911  0.73003014    -0.84500
O293        O  0.02784101  0.59677741  0.64348746    -0.79400
O294        O  0.07934390  0.61747699  0.74231626    -0.81200
O295        O  0.01404518  0.64537680  0.72658105    -0.83900
C296        C  0.03919090  0.60129971  0.61459939     0.96900
C297        C  0.05296163  0.57676235  0.71969821     1.04300
O298        O  0.04268648  0.61917002  0.71321860    -1.12900
O299        O  0.03186166  0.62825768  0.80233855    -0.75300
O300        O  0.01494406  0.60703520  0.77395677    -0.78800
O301        O  0.05333166  0.60929291  0.62456269    -0.79500
C302        C  0.02045758  0.61606403  0.80667956     0.95800
O303        O  0.00565114  0.62221577  0.68695943    -0.77500
O304        O  0.06552205  0.64112934  0.76926992    -0.82600
C305        C  0.06138720  0.65423347  0.66824408     0.98400
C306        C  0.07867615  0.63081369  0.76761986     1.04300
O307        O  0.06975332  0.63968914  0.66537571    -0.78300
C308        C  0.00312414  0.63779801  0.70094583     1.02600
Fe309      Fe  0.98553808  0.42728860  0.32328714     1.65800
Fe310      Fe  0.96771968  0.39031939  0.27827161     1.73200
Fe311      Fe  0.94236899  0.41651650  0.34503228     1.54400
O312        O  0.95440636  0.42029049  0.40614478    -0.82000
O313        O  0.94362490  0.39350175  0.24896864    -0.80300
O314        O  0.98083313  0.43118977  0.38969695    -0.84500
O315        O  0.97092698  0.44890922  0.30600693    -0.79400
O316        O  0.93786271  0.39042520  0.36304401    -0.81200
O317        O  0.97829427  0.40415015  0.22638027    -0.83900
C318        C  0.95509449  0.45340856  0.31306738     0.96900
C319        C  0.96915640  0.42681277  0.41764304     1.04300
O320        O  0.96513780  0.41139377  0.31554184    -1.12900
O321        O  0.99228216  0.38411063  0.30277694    -0.75300
O322        O  0.00197816  0.40703194  0.34181982    -0.78800
O323        O  0.94358704  0.44319016  0.32982161    -0.79500
C324        C  0.00331670  0.39114497  0.32894488     0.95800
O325        O  0.99379184  0.42562061  0.25785698    -0.77500
O326        O  0.95714278  0.37404534  0.32540390    -0.82600
C327        C  0.92987169  0.40269706  0.25439000     0.98400
C328        C  0.94471385  0.37562297  0.35320447     1.04300
O329        O  0.92773500  0.41294519  0.28739787    -0.78300
C330        C  0.98946719  0.41650241  0.22423788     1.02600
Fe331      Fe  0.99195506  0.60631420  0.20738616     1.65800
Fe332      Fe  0.97308957  0.64255911  0.25432686     1.73200
Fe333      Fe  0.94790452  0.61444123  0.19153711     1.54400
O334        O  0.95855455  0.61013489  0.12915705    -0.82000
O335        O  0.94975892  0.63826645  0.28675177    -0.80300
O336        O  0.98673463  0.60360046  0.14106218    -0.84500
O337        O  0.97870489  0.58358630  0.22262724    -0.79400
O338        O  0.94237431  0.64000066  0.17169831    -0.81200
O339        O  0.98542676  0.62920440  0.30510590    -0.83900
C340        C  0.96299540  0.57814487  0.21993879     0.96900
C341        C  0.97369728  0.60558922  0.11535091     1.04300
O342        O  0.97097604  0.62112291  0.21764182    -1.12900
O343        O  0.99693331  0.65005714  0.22814117    -0.75300
O344        O  0.00804724  0.62717042  0.19135875    -0.78800
O345        O  0.95039978  0.58808134  0.20804076    -0.79500
C346        C  0.00887982  0.64297320  0.20488134     0.95800
O347        O  0.99994261  0.60719307  0.27249860    -0.77500
O348        O  0.96089890  0.65803842  0.20716438    -0.82600
C349        C  0.93649389  0.62823527  0.28324213     0.98400
C350        C  0.94875902  0.65524907  0.17901117     1.04300
O351        O  0.93429275  0.61789152  0.25055629    -0.78300
C352        C  0.99586729  0.61612657  0.30652783     1.02600
Fe353      Fe  0.51863263  0.10961415  0.21683771     1.65800
Fe354      Fe  0.53742470  0.14754161  0.25261111     1.73200
Fe355      Fe  0.56185330  0.11797284  0.19263862     1.54400
O356        O  0.56131026  0.09298099  0.22054035    -0.82000
O357        O  0.55267465  0.16135376  0.20777719    -0.80300
O358        O  0.53276137  0.08650494  0.22406007    -0.84500
O359        O  0.52048499  0.10912481  0.14931314    -0.79400
O360        O  0.57684817  0.12617972  0.24648737    -0.81200
O361        O  0.51556419  0.15544367  0.21718097    -0.83900
C362        C  0.53341926  0.10859097  0.12274174     0.96900
C363        C  0.54881500  0.08234023  0.22876029     1.04300
O364        O  0.53939974  0.12505331  0.22065095    -1.12900
O365        O  0.52177551  0.13694828  0.30249314    -0.75300
O366        O  0.51535163  0.10927137  0.28398240    -0.78800
O367        O  0.54943657  0.10941271  0.13496192    -0.79500
C368        C  0.51529416  0.12186537  0.31149714     0.95800
O369        O  0.50079454  0.13020798  0.21033797    -0.77500
O370        O  0.55922624  0.14195852  0.29054099    -0.82600
C371        C  0.56201208  0.15788163  0.17395638     0.98400
C372        C  0.57402004  0.13488848  0.28188348     1.04300
O373        O  0.56541215  0.14218018  0.16187933    -0.78300
C374        C  0.50163531  0.14693174  0.20819217     1.02600
Fe375      Fe  0.52351397  0.92750149  0.33459782     1.65800
Fe376      Fe  0.54415965  0.89023421  0.29813153     1.73200
Fe377      Fe  0.56706607  0.92058439  0.35993969     1.54400
O378        O  0.56487765  0.94651810  0.33790757    -0.82000
O379        O  0.55478212  0.87643090  0.35032575    -0.80300
O380        O  0.53691653  0.95007338  0.31727569    -0.84500
O381        O  0.52657375  0.93227820  0.40134161    -0.79400
O382        O  0.58252869  0.91566864  0.30483904    -0.81200
O383        O  0.51954810  0.88315545  0.32062751    -0.83900
C384        C  0.53892810  0.93076288  0.42936115     0.96900
C385        C  0.55258916  0.95565709  0.32086962     1.04300
O386        O  0.54493075  0.91278493  0.33089366    -1.12900
O387        O  0.53340063  0.90180421  0.24238041    -0.75300
O388        O  0.51770158  0.92441824  0.26849078    -0.78800
O389        O  0.55444791  0.92624192  0.41874460    -0.79500
C390        C  0.52251349  0.91435648  0.23712778     0.95800
O391        O  0.50714570  0.90672482  0.35139116    -0.77500
O392        O  0.56867722  0.89353664  0.27067790    -0.82600
C393        C  0.56614167  0.88006922  0.37982654     0.98400
C394        C  0.58174245  0.90375671  0.27538005     1.04300
O395        O  0.57220693  0.89559370  0.38549882    -0.78300
C396        C  0.50684354  0.89054768  0.34047782     1.02600
Fe397      Fe  0.48907576  0.11188739  0.71393733     1.65800
Fe398      Fe  0.47066424  0.14785870  0.76172020     1.73200
Fe399      Fe  0.44538386  0.12079535  0.69757706     1.54400
O400        O  0.45628003  0.11805292  0.63530200    -0.82000
O401        O  0.44628442  0.14475282  0.79080585    -0.80300
O402        O  0.48307329  0.10737047  0.64845064    -0.84500
O403        O  0.47573735  0.08986970  0.73394219    -0.79400
O404        O  0.43977304  0.14705363  0.68171514    -0.81200
O405        O  0.48086581  0.13326049  0.81290476    -0.83900
C406        C  0.46006819  0.08446379  0.72898419     0.96900
C407        C  0.47075100  0.11153029  0.62215697     1.04300
O408        O  0.46832343  0.12686950  0.72421656    -1.12900
O409        O  0.49558724  0.15427220  0.73846626    -0.75300
O410        O  0.50427540  0.13271558  0.69332866    -0.78800
O411        O  0.44802568  0.09386118  0.71140837    -0.79500
C412        C  0.50616795  0.14797130  0.70988118     0.95800
O413        O  0.49835713  0.11411294  0.77811360    -0.77500
O414        O  0.46022330  0.16401022  0.71370608    -0.82600
C415        C  0.43329557  0.13428590  0.78769796     0.98400
C416        C  0.44698646  0.16204245  0.68838437     1.04300
O417        O  0.43182942  0.12308063  0.75666209    -0.78300
C418        C  0.49270915  0.12149196  0.81309358     1.02600
Fe419      Fe  0.49198792  0.93086066  0.83628205     1.65800
Fe420      Fe  0.47288406  0.89308217  0.79770149     1.73200
Fe421      Fe  0.44833059  0.92238049  0.85746294     1.54400
O422        O  0.46025427  0.92668218  0.91811941    -0.82000
O423        O  0.44845600  0.89555658  0.76944717    -0.80300
O424        O  0.48790603  0.93487778  0.90290410    -0.84500
O425        O  0.47825166  0.95317462  0.81898118    -0.79400
O426        O  0.44263615  0.89691975  0.87891489    -0.81200
O427        O  0.48336217  0.90568415  0.74296299    -0.83900
C428        C  0.46250524  0.95840557  0.82319420     0.96900
C429        C  0.47554518  0.93161802  0.93003906     1.04300
O430        O  0.47107505  0.91545894  0.83054858    -1.12900
O431        O  0.49755531  0.88678344  0.82093494    -0.75300
O432        O  0.50876465  0.91051268  0.85374239    -0.78800
O433        O  0.45042254  0.94871735  0.83920181    -0.79500
C434        C  0.50956803  0.89434566  0.84301778     0.95800
O435        O  0.49841421  0.92854696  0.77030231    -0.77500
O436        O  0.46232845  0.87856349  0.84924960    -0.82600
C437        C  0.43538365  0.90588571  0.77143329     0.98400
C438        C  0.44940275  0.88163321  0.87491180     1.04300
O439        O  0.43418108  0.91832956  0.79948296    -0.78300
C440        C  0.49340609  0.91898149  0.73810330     1.02600
Fe441      Fe  0.85209510  0.78160370  0.06586348     1.65800
Fe442      Fe  0.88769844  0.80078517  0.01822063     1.73200
Fe443      Fe  0.85973637  0.82563007  0.08008346     1.54400
O444        O  0.83275877  0.82144249  0.07184472    -0.82000
O445        O  0.90318762  0.81209739  0.06599439    -0.80300
O446        O  0.82928601  0.79404528  0.04660858    -0.84500
O447        O  0.84796309  0.78830432  0.13145379    -0.79400
O448        O  0.86005185  0.83785667  0.01918055    -0.81200
O449        O  0.89496824  0.77623728  0.04265634    -0.83900
C450        C  0.85288444  0.80072337  0.15700376     0.96900
C451        C  0.82315099  0.80914521  0.05622752     1.04300
O452        O  0.86647206  0.80265884  0.05469684    -1.12900
O453        O  0.87412808  0.78935542  0.96740480    -0.75300
O454        O  0.85465765  0.77205311  0.00162000    -0.78800
O455        O  0.85898850  0.81526691  0.14287943    -0.79500
C456        C  0.86267918  0.77717581  0.96687092     0.95800
O457        O  0.87333586  0.76689280  0.08650475    -0.77500
O458        O  0.88337818  0.82493994  0.98801299    -0.82600
C459        C  0.90089660  0.82632599  0.08731427     0.98400
C460        C  0.87163299  0.83689245  0.98893995     1.04300
O461        O  0.88576257  0.83332844  0.09203682    -0.78300
C462        C  0.88864675  0.76522771  0.07018463     1.02600
Fe463      Fe  0.66497328  0.78458426  0.97669090     1.65800
Fe464      Fe  0.62700356  0.80384428  0.01153145     1.73200
Fe465      Fe  0.65795126  0.82854344  0.95761085     1.54400
O466        O  0.68391292  0.82549046  0.97849664    -0.82000
O467        O  0.61416618  0.81414558  0.95753691    -0.80300
O468        O  0.68698190  0.79747779  0.99976902    -0.84500
O469        O  0.67154712  0.78989899  0.91147437    -0.79400
O470        O  0.65292205  0.84211348  0.01562269    -0.81200
O471        O  0.62121680  0.77881316  0.98801085    -0.83900
C472        C  0.66952722  0.80271193  0.88475356     0.96900
C473        C  0.69302178  0.81297227  0.99474999     1.04300
O474        O  0.65006066  0.80567757  0.98204935    -1.12900
O475        O  0.63808565  0.79333418  0.06799062    -0.75300
O476        O  0.65994987  0.77663860  0.04140399    -0.78800
O477        O  0.66370591  0.81763326  0.89696421    -0.79500
C478        C  0.64992094  0.78164207  0.07286299     0.95800
O479        O  0.64488473  0.76907211  0.95230552    -0.77500
O480        O  0.62855704  0.82870959  0.03936783    -0.82600
C481        C  0.61775085  0.82742516  0.93345079     0.98400
C482        C  0.63925380  0.84159041  0.03974819     1.04300
O483        O  0.63296827  0.83459240  0.93305207    -0.78300
C484        C  0.62883973  0.76765685  0.96322703     1.02600
Fe485      Fe  0.84851931  0.75123514  0.56209599     1.65800
Fe486      Fe  0.88522889  0.73200659  0.51939194     1.73200
Fe487      Fe  0.85690786  0.70762527  0.58314966     1.54400
O488        O  0.84998346  0.71981115  0.64230666    -0.82000
O489        O  0.87852870  0.71016606  0.48191569    -0.80300
O490        O  0.84912447  0.74881073  0.62957256    -0.84500
O491        O  0.82501715  0.73728044  0.55862484    -0.79400
O492        O  0.88180883  0.70345849  0.60938960    -0.81200
O493        O  0.87372385  0.74775763  0.47175277    -0.83900
C494        C  0.82040364  0.72118648  0.55625540     0.96900
C495        C  0.84850468  0.73569351  0.65562590     1.04300
O496        O  0.86352578  0.73021911  0.55478177    -1.12900
O497        O  0.89420043  0.75397120  0.55340988    -0.75300
O498        O  0.86950249  0.76866777  0.56744954    -0.78800
O499        O  0.83124028  0.70856442  0.56019827    -0.79500
C500        C  0.88620176  0.76780233  0.56600557     0.95800
O501        O  0.84695356  0.75564042  0.49489525    -0.77500
O502        O  0.89993895  0.71665241  0.56192860    -0.82600
C503        C  0.87090413  0.69564010  0.49098782     0.98400
C504        C  0.89723730  0.70690175  0.59552763     1.04300
O505        O  0.86314025  0.69280217  0.52771269    -0.78300
C506        C  0.85896171  0.75521875  0.46561114     1.02600
Fe507      Fe  0.66468878  0.75341299  0.48002952     1.65800
Fe508      Fe  0.62859819  0.73427880  0.52718755     1.73200
Fe509      Fe  0.65525726  0.71001312  0.45960841     1.54400
O510        O  0.65612443  0.72219451  0.39821189    -0.82000
O511        O  0.63323804  0.71000062  0.55585537    -0.80300
O512        O  0.66754568  0.74858509  0.41299553    -0.84500
O513        O  0.68732693  0.73981565  0.49443432    -0.79400
O514        O  0.62913292  0.70354588  0.44678182    -0.81200
O515        O  0.64268009  0.74532373  0.57812167    -0.83900
C516        C  0.69255315  0.72445194  0.48437561     0.96900
C517        C  0.66230982  0.73695289  0.38558523     1.04300
O518        O  0.64952612  0.73256200  0.48905550    -1.12900
O519        O  0.62125973  0.75894397  0.50382613    -0.75300
O520        O  0.64379026  0.76950263  0.46451110    -0.78800
O521        O  0.68235760  0.71268778  0.46864175    -0.79500
C522        C  0.62809125  0.77054468  0.47863271     0.95800
O523        O  0.66370103  0.76121934  0.54581597    -0.77500
O524        O  0.61203021  0.72318435  0.48070221    -0.82600
C525        C  0.64388288  0.69720558  0.55107612     0.98400
C526        C  0.61404075  0.70989788  0.45558311     1.04300
O527        O  0.65440128  0.69593306  0.51839279    -0.78300
C528        C  0.65497001  0.75660098  0.57989765     1.02600
Fe529      Fe  0.34219541  0.28442613  0.57342616     1.65800
Fe530      Fe  0.37923374  0.30335383  0.53024268     1.73200
Fe531      Fe  0.35028247  0.32875426  0.58964529     1.54400
O532        O  0.32467627  0.32651119  0.56722119    -0.82000
O533        O  0.39351785  0.31916360  0.57223575    -0.80300
O534        O  0.31947582  0.29780308  0.55798284    -0.84500
O535        O  0.33928412  0.28932831  0.64031341    -0.79400
O536        O  0.35603963  0.34235306  0.53184084    -0.81200
O537        O  0.38763288  0.28174672  0.56587996    -0.83900
C538        C  0.34037639  0.30272737  0.66543707     0.96900
C539        C  0.31474943  0.31382288  0.55578401     1.04300
O540        O  0.35725473  0.30552921  0.56455504    -1.12900
O541        O  0.36845099  0.28739021  0.48246826    -0.75300
O542        O  0.34313268  0.27672100  0.50763781    -0.78800
O543        O  0.34408596  0.31805573  0.65098123    -0.79500
C544        C  0.35462477  0.27826204  0.47735555     0.95800
O545        O  0.36320544  0.26824641  0.58929524    -0.77500
O546        O  0.37316851  0.32473643  0.49088669    -0.82600
C547        C  0.39051413  0.33080809  0.60140322     0.98400
C548        C  0.36486655  0.33908766  0.49693568     1.04300
O549        O  0.37505258  0.33463672  0.61420384    -0.78300
C550        C  0.37984107  0.26903682  0.58518906     1.02600
Fe551      Fe  0.16213090  0.28498571  0.45684822     1.65800
Fe552      Fe  0.12512336  0.30310622  0.49722570     1.73200
Fe553      Fe  0.15277240  0.32808756  0.43635209     1.54400
O554        O  0.17954391  0.32542980  0.44977931    -0.82000
O555        O  0.11047403  0.31103257  0.44411650    -0.80300
O556        O  0.18312024  0.29898160  0.48142755    -0.84500
O557        O  0.16893792  0.29116327  0.39209146    -0.79400
O558        O  0.15033911  0.34143429  0.49576935    -0.81200
O559        O  0.12052157  0.27732988  0.47815809    -0.83900
C560        C  0.16370215  0.30258129  0.36415793     0.96900
C561        C  0.18861304  0.31435755  0.47186896     1.04300
O562        O  0.14675594  0.30543092  0.46338122    -1.12900
O563        O  0.13889891  0.29516683  0.55203431    -0.75300
O564        O  0.15749610  0.27598474  0.52099709    -0.78800
O565        O  0.15549928  0.31648595  0.37519201    -0.79500
C566        C  0.14989941  0.28263774  0.55470579     0.95800
O567        O  0.14193406  0.26967614  0.43173362    -0.77500
O568        O  0.12593316  0.32859118  0.52119922    -0.82600
C569        C  0.11208872  0.32529170  0.42240634     0.98400
C570        C  0.13711235  0.34103060  0.52144770     1.04300
O571        O  0.12661219  0.33371848  0.42012864    -0.78300
C572        C  0.12668817  0.26736952  0.44806611     1.02600
Fe573      Fe  0.34510302  0.25493520  0.07452197     1.65800
Fe574      Fe  0.38131149  0.23590435  0.02814445     1.73200
Fe575      Fe  0.35244366  0.21046267  0.08703789     1.54400
O576        O  0.34954035  0.22040529  0.15024086    -0.82000
O577        O  0.37703919  0.21254629  0.99468914    -0.80300
O578        O  0.34130417  0.24842415  0.14053455    -0.84500
O579        O  0.32230505  0.24247092  0.05566362    -0.79400
O580        O  0.37792274  0.20319594  0.10394038    -0.81200
O581        O  0.36850030  0.24859006  0.97728324    -0.83900
C582        C  0.31663144  0.22677196  0.05850686     0.96900
C583        C  0.34442222  0.23519025  0.16527461     1.04300
O584        O  0.35960439  0.23377547  0.06328014    -1.12900
O585        O  0.38883441  0.25965744  0.05598803    -0.75300
O586        O  0.36615360  0.27012054  0.09451296    -0.78800
O587        O  0.32601216  0.21409243  0.07259837    -0.79500
C588        C  0.38204853  0.27098054  0.08186815     0.95800
O589        O  0.34727716  0.26421030  0.00979414    -0.77500
O590        O  0.39623347  0.22334252  0.07564597    -0.82600
C591        C  0.36609689  0.19987635  0.99584753     0.98400
C592        C  0.39320587  0.20981040  0.09931088     1.04300
O593        O  0.35481687  0.19804907  0.02655232    -0.78300
C594        C  0.35639875  0.26010104  0.97587797     1.02600
Fe595      Fe  0.16340917  0.25228349  0.96238446     1.65800
Fe596      Fe  0.12913370  0.23107926  0.01003893     1.73200
Fe597      Fe  0.15445778  0.20967646  0.93427678     1.54400
O598        O  0.16145533  0.22375053  0.87752370    -0.82000
O599        O  0.13812463  0.20892086  0.04178240    -0.80300
O600        O  0.15991602  0.25226509  0.89552713    -0.84500
O601        O  0.18662878  0.23814108  0.95742400    -0.79400
O602        O  0.12911651  0.20821407  0.90964514    -0.81200
O603        O  0.14208367  0.24606880  0.05721683    -0.83900
C604        C  0.19111390  0.22200516  0.96032653     0.96900
C605        C  0.16098111  0.24001824  0.86715069     1.04300
O606        O  0.14902501  0.23097844  0.96895199    -1.12900
O607        O  0.11836169  0.25320892  0.98119781    -0.75300
O608        O  0.14208371  0.26941174  0.96581936    -0.78800
O609        O  0.18014343  0.20942941  0.95667593    -0.79500
C610        C  0.12548064  0.26760251  0.96923744     0.95800
O611        O  0.16800328  0.25418220  0.02926761    -0.77500
O612        O  0.11340542  0.21592567  0.96900824    -0.82600
C613        C  0.14241815  0.19416300  0.02518802     0.98400
C614        C  0.11454747  0.20938387  0.93029086     1.04300
O615        O  0.14775422  0.19242561  0.98541174    -0.78300
C616        C  0.15738698  0.25262702  0.06148702     1.02600
Fe617      Fe  0.99092439  0.10690723  0.81781364     1.65800
Fe618      Fe  0.97177860  0.14308233  0.77197827     1.73200
Fe619      Fe  0.94725577  0.11506767  0.83658513     1.54400
O620        O  0.94859211  0.08928934  0.81461992    -0.82000
O621        O  0.95667967  0.15832117  0.81432190    -0.80300
O622        O  0.97726750  0.08333147  0.81594429    -0.84500
O623        O  0.98816378  0.10876082  0.88494669    -0.79400
O624        O  0.93267638  0.12075469  0.78045872    -0.81200
O625        O  0.99356462  0.15231588  0.80537618    -0.83900
C626        C  0.97490970  0.10879410  0.91049943     0.96900
C627        C  0.96133873  0.07856823  0.81202161     1.04300
O628        O  0.96989331  0.12168350  0.80866088    -1.12900
O629        O  0.98724110  0.13062481  0.72459004    -0.75300
O630        O  0.99533997  0.10431315  0.75087184    -0.78800
O631        O  0.95906260  0.10891343  0.89688597    -0.79500
C632        C  0.99454709  0.11561517  0.71984901     0.95800
O633        O  0.00824710  0.12792680  0.82198460    -0.77500
O634        O  0.94994410  0.13642829  0.73517118    -0.82600
C635        C  0.94673702  0.15553845  0.84750926     0.98400
C636        C  0.93551004  0.12867989  0.74394771     1.04300
O637        O  0.94290342  0.14014341  0.86118894    -0.78300
C638        C  0.00719139  0.14461629  0.81977104     1.02600
Fe639      Fe  0.99524513  0.92413901  0.71378192     1.65800
Fe640      Fe  0.97587852  0.88773235  0.76011633     1.73200
Fe641      Fe  0.95163967  0.91517037  0.69345688     1.54400
O642        O  0.95359024  0.94177485  0.70964537    -0.82000
O643        O  0.96373714  0.87170608  0.71395363    -0.80300
O644        O  0.98167638  0.94698032  0.72678941    -0.84500
O645        O  0.99109430  0.92670387  0.64700580    -0.79400
O646        O  0.93708412  0.91202571  0.75047146    -0.81200
O647        O  0.99977466  0.87985588  0.73383096    -0.83900
C648        C  0.97861052  0.92377415  0.62010982     0.96900
C649        C  0.96581182  0.95191827  0.72310268     1.04300
O650        O  0.97423143  0.90900295  0.72245527    -1.12900
O651        O  0.98806086  0.90123491  0.81117388    -0.75300
O652        O  0.00213654  0.92377209  0.77958612    -0.78800
O653        O  0.96345992  0.91882860  0.63266839    -0.79500
C654        C  0.99798773  0.91470520  0.81334949     0.95800
O655        O  0.01155491  0.90309197  0.69974338    -0.77500
O656        O  0.95208921  0.89252916  0.79084997    -0.82600
C657        C  0.95207124  0.87407324  0.68435404     0.98400
C658        C  0.93853782  0.90194502  0.78381282     1.04300
O659        O  0.94634040  0.88932593  0.67419285    -0.78300
C660        C  0.01193614  0.88694784  0.71104584     1.02600
Fe661      Fe  0.01986165  0.10799749  0.31963308     1.65800
Fe662      Fe  0.03543537  0.14669517  0.28014411     1.73200
Fe663      Fe  0.06271748  0.11950827  0.33581746     1.54400
O664        O  0.05258647  0.11537061  0.39828424    -0.82000
O665        O  0.06053080  0.14741382  0.25321194    -0.80300
O666        O  0.02700592  0.10189046  0.38421906    -0.84500
O667        O  0.03456123  0.08773068  0.29438634    -0.79400
O668        O  0.06736672  0.14583385  0.35274098    -0.81200
O669        O  0.02710247  0.13306955  0.22526733    -0.83900
C670        C  0.05032927  0.08303598  0.30117861     0.96900
C671        C  0.03900301  0.10691636  0.41084936     1.04300
O672        O  0.03929701  0.12469368  0.31213165    -1.12900
O673        O  0.00973936  0.14968028  0.30172230    -0.75300
O674        O  0.00310986  0.12683109  0.34483768    -0.78800
O675        O  0.06145514  0.09270790  0.32125506    -0.79500
C676        C  0.99958286  0.14191908  0.32898369     0.95800
O677        O  0.01032543  0.11206430  0.25598430    -0.77500
O678        O  0.04372934  0.16137896  0.33341716    -0.82600
C679        C  0.07340822  0.13678017  0.25063246     0.98400
C680        C  0.05847599  0.16009917  0.35302977     1.04300
O681        O  0.07464480  0.12320955  0.27505844    -0.78300
C682        C  0.01568129  0.12085740  0.22262230     1.02600
Fe683      Fe  0.02409444  0.92687618  0.20872199     1.65800
Fe684      Fe  0.04296726  0.89057658  0.25647054     1.73200
Fe685      Fe  0.06848143  0.91932956  0.19595016     1.54400
O686        O  0.05842701  0.92435935  0.13374902    -0.82000
O687        O  0.06524355  0.89596171  0.29291238    -0.80300
O688        O  0.02965367  0.92905796  0.14231859    -0.84500
O689        O  0.03695926  0.95011993  0.22220284    -0.79400
O690        O  0.07418856  0.89404046  0.17402006    -0.81200
O691        O  0.02858030  0.90288500  0.30481001    -0.83900
C692        C  0.05276642  0.95553735  0.22281575     0.96900
C693        C  0.04328926  0.92769848  0.11826115     1.04300
O694        O  0.04519703  0.91228950  0.22043244    -1.12900
O695        O  0.02039233  0.88201449  0.22535879    -0.75300
O696        O  0.00833117  0.90549099  0.19304876    -0.78800
O697        O  0.06576478  0.94552743  0.21455222    -0.79500
C698        C  0.00838249  0.88916986  0.20249873     0.95800
O699        O  0.01597769  0.92655581  0.27415829    -0.77500
O700        O  0.05695357  0.87561160  0.21211628    -0.82600
C701        C  0.07895730  0.90537261  0.28850869     0.98400
C702        C  0.06855821  0.87861918  0.18283525     1.04300
O703        O  0.08172775  0.91503198  0.25479819    -0.78300
C704        C  0.01879399  0.91638870  0.30685970     1.02600
C705        C  0.07100611  0.00253024  0.22753140    -0.11700
C706        C  0.05925182  0.01024295  0.25778845     0.14800
C707        C  0.04567193  0.99993023  0.27652780     0.01700
C708        C  0.04414312  0.98221362  0.26464586    -0.16100
C709        C  0.05580348  0.97431282  0.23438823    -0.10900
C710        C  0.06934608  0.98473663  0.21529275     0.08400
C711        C  0.06026203  0.02938316  0.26627355     0.09500
S712        S  0.02967926  0.00855763  0.31533596    -0.25200
H713        H  0.03340240  0.97462132  0.27843420     0.19700
S714        S  0.08394974  0.97665430  0.17268424    -0.30900
H715        H  0.08115883  0.01058906  0.21226992     0.10000
C716        C  0.06652899  0.03615979  0.30687581     0.03200
C717        C  0.06424748  0.05415278  0.31637581    -0.13200
C718        C  0.05561120  0.06532240  0.28618566    -0.08900
C719        C  0.05045823  0.05866789  0.24423598     0.06700
C720        C  0.05282171  0.04077793  0.23483170    -0.14000
S721        S  0.07659376  0.02170948  0.34727285    -0.30900
H722        H  0.06824602  0.05931320  0.34838009     0.10900
S723        S  0.04042738  0.07213898  0.20167527    -0.28000
H724        H  0.04813270  0.03552272  0.20348260     0.08200
H725        H  0.07077025  0.96729147  0.14968884     0.26600
H726        H  0.07979419  0.03470460  0.37969844     0.21400
H727        H  0.04851453  0.08804751  0.21444825     0.26700
H728        H  0.02862417  0.02561493  0.29715553     0.15600
C729        C  0.00463964  0.92168348  0.93708256    -0.11700
C730        C  0.02166473  0.92879911  0.93769194     0.14800
C731        C  0.03052445  0.93214747  0.89746198     0.01700
C732        C  0.02240160  0.92759670  0.85739802    -0.16100
C733        C  0.00544368  0.92003358  0.85663140    -0.10900
C734        C  0.99630996  0.91760391  0.89714195     0.08400
C735        C  0.03010091  0.93107705  0.98121986     0.09500
S736        S  0.05219708  0.94190979  0.89520903    -0.25200
H737        H  0.02951010  0.92975473  0.82661849     0.19700
S738        S  0.97388966  0.90997428  0.90049282    -0.30900
H739        H  0.99779470  0.91926318  0.96814758     0.10000
C740        C  0.02426147  0.94411691  0.01104793     0.03200
C741        C  0.02981783  0.94343563  0.05529471    -0.13200
C742        C  0.04105539  0.92993993  0.07010628    -0.08900
C743        C  0.04781875  0.91760941  0.03927351     0.06700
C744        C  0.04220368  0.91828305  0.99515709    -0.14000
S745        S  0.00911254  0.96107430  0.99312858    -0.30900
H746        H  0.02480395  0.95297066  0.07895116     0.10900
S747        S  0.06163711  0.89937364  0.05536079    -0.28000
H748        H  0.04649335  0.90815627  0.97210800     0.08200
H749        H  0.96812766  0.91960861  0.86322257     0.26600
H750        H  0.00783333  0.96986344  0.03418768     0.21400
H751        H  0.07519132  0.91038572  0.07118205     0.26700
H752        H  0.05082477  0.95143398  0.93516554     0.15600
C753        C  0.97381590  0.92730544  0.49460543    -0.11700
C754        C  0.99132029  0.92468206  0.48161254     0.14800
C755        C  0.00461752  0.92289886  0.51390278     0.01700
C756        C  0.00006465  0.92336714  0.55862998    -0.16100
C757        C  0.98244801  0.92541885  0.57219196    -0.10900
C758        C  0.96924069  0.92795665  0.53955118     0.08400
C759        C  0.99553903  0.92356169  0.43423418     0.09500
S760        S  0.02760395  0.91972416  0.50038038    -0.25200
H761        H  0.01040165  0.92145277  0.58298733     0.19700
S762        S  0.94655663  0.93269907  0.55261848    -0.30900
H763        H  0.96370724  0.92897099  0.46952684     0.10000
C764        C  0.99341835  0.90754930  0.41118518     0.03200
C765        C  0.00063958  0.90588129  0.36872639    -0.13200
C766        C  0.01002430  0.91985635  0.34926150    -0.08900
C767        C  0.01160598  0.93608834  0.37198420     0.06700
C768        C  0.00407397  0.93785834  0.41403091    -0.14000
S769        S  0.98268180  0.88888232  0.43713444    -0.30900
H770        H  0.99945163  0.89347940  0.35104414     0.10900
S771        S  0.02435504  0.95440120  0.35146735    -0.28000
H772        H  0.00587609  0.95004914  0.43238781     0.08200
H773        H  0.95063150  0.94425102  0.58780588     0.26600
H774        H  0.98546031  0.87680577  0.40230423     0.21400
H775        H  0.03728381  0.94418850  0.33003895     0.26700
H776        H  0.02495790  0.90986153  0.46141502     0.15600
C777        C  0.99332388  0.12378662  0.01971021    -0.11700
C778        C  0.98963031  0.10919690  0.04677650     0.14800
C779        C  0.97962232  0.09497903  0.02979539     0.01700
C780        C  0.97391264  0.09551833  0.98557487    -0.16100
C781        C  0.97839960  0.10978726  0.95811658    -0.10900
C782        C  0.98788271  0.12422296  0.97564714     0.08400
C783        C  0.99628293  0.10972392  0.09264918     0.09500
S784        S  0.97439098  0.07559007  0.06206176    -0.25200
H785        H  0.96671345  0.08440152  0.97192962     0.19700
S786        S  0.99360475  0.14352112  0.94341014    -0.30900
H787        H  0.00067424  0.13487752  0.03302709     0.10000
C788        C  0.01454172  0.11010637  0.10111126     0.03200
C789        C  0.02047549  0.11367783  0.14409344    -0.13200
C790        C  0.00851411  0.11662804  0.17876500    -0.08900
C791        C  0.99021133  0.11556880  0.17059828     0.06700
C792        C  0.98428999  0.11205263  0.12756113    -0.14000
S793        S  0.03027620  0.10606840  0.05714264    -0.30900
H794        H  0.03448610  0.11420825  0.15085039     0.10900
S795        S  0.97380959  0.11969803  0.21275244    -0.28000
H796        H  0.97026410  0.11195287  0.12078801     0.08200
H797        H  0.97905685  0.14261967  0.91464747     0.26600
H798        H  0.04555220  0.10765625  0.08330496     0.21400
H799        H  0.98338580  0.13298437  0.23470689     0.26700
H800        H  0.98942662  0.07614418  0.08928030     0.15600
C801        C  0.02403596  0.09734272  0.62820981    -0.11700
C802        C  0.01573554  0.10434733  0.59060707     0.14800
C803        C  0.00023761  0.11440383  0.59554798     0.01700
C804        C  0.99380854  0.11791103  0.63801927    -0.16100
C805        C  0.00217145  0.11122532  0.67601377    -0.10900
C806        C  0.01753899  0.10079610  0.67088741     0.08400
C807        C  0.02468375  0.10324467  0.54730087     0.09500
S808        S  0.98852747  0.12384827  0.54911071    -0.25200
H809        H  0.98216793  0.12602094  0.64139460     0.19700
S810        S  0.03035328  0.09284305  0.71714731    -0.30900
H811        H  0.03615682  0.08993651  0.62438254     0.10000
C812        C  0.03518343  0.11736190  0.53220712     0.03200
C813        C  0.04092673  0.11753936  0.48806740    -0.13200
C814        C  0.03634350  0.10386099  0.45878459    -0.08900
C815        C  0.02733303  0.08885779  0.47539866     0.06700
C816        C  0.02144899  0.08878149  0.51947103    -0.14000
S817        S  0.04038028  0.13565216  0.56851386    -0.30900
H818        H  0.04800695  0.12893496  0.47561595     0.10900
S819        S  0.02285379  0.06955781  0.44210058    -0.28000
H820        H  0.01374726  0.07772678  0.53165234     0.08200
H821        H  0.02887427  0.10855097  0.74188847     0.26600
H822        H  0.05121468  0.14487948  0.53844859     0.21400
H823        H  0.03794117  0.07123636  0.41517870     0.26700
H824        H  0.99251636  0.11038154  0.51864416     0.15600
C825        C  0.96415515  0.02869508  0.81548244    -0.11700
C826        C  0.95495744  0.02418071  0.77673232     0.14800
C827        C  0.94620718  0.03749265  0.75241178     0.01700
C828        C  0.94769661  0.05513890  0.76596415    -0.16100
C829        C  0.95771942  0.05975066  0.80339276    -0.10900
C830        C  0.96551053  0.04628282  0.82925495     0.08400
C831        C  0.95664327  0.00589923  0.76001881     0.09500
S832        S  0.93395829  0.03293815  0.70237365    -0.25200
H833        H  0.94165503  0.06540866  0.74603865     0.19700
S834        S  0.97751371  0.05072942  0.87979087    -0.30900
H835        H  0.97078416  0.01848084  0.83437501     0.10000
C836        C  0.97010904  0.00146481  0.72981175     0.03200
C837        C  0.97252711  0.98376680  0.71770319    -0.13200
C838        C  0.96170286  0.97037427  0.73502147    -0.08900
C839        C  0.94805150  0.97489284  0.76495098     0.06700
C840        C  0.94563697  0.99261749  0.77700414    -0.14000
S841        S  0.98458611  0.01831665  0.70781839    -0.30900
H842        H  0.98301936  0.98027321  0.69494869     0.10900
S843        S  0.93404609  0.95862419  0.79095302    -0.28000
H844        H  0.93544628  0.99603914  0.80071803     0.08200
H845        H  0.96772987  0.06575465  0.89189448     0.26600
H846        H  0.99462478  0.00714275  0.68037937     0.21400
H847        H  0.94731112  0.94583736  0.79634699     0.26700
H848        H  0.92929836  0.01550349  0.71333725     0.15600
C849        C  0.10833459  0.13404562  0.16026255    -0.11700
C850        C  0.11400789  0.15170150  0.15877296     0.14800
C851        C  0.10661330  0.16413211  0.18840463     0.01700
C852        C  0.09373082  0.15864786  0.21863008    -0.16100
C853        C  0.08770991  0.14113145  0.21938416    -0.10900
C854        C  0.09512428  0.12867954  0.18990210     0.08400
C855        C  0.12499757  0.15772432  0.12107437     0.09500
S856        S  0.11226663  0.18734297  0.18534735    -0.25200
H857        H  0.08792952  0.16817863  0.24113032     0.19700
S858        S  0.08718292  0.10629836  0.18578965    -0.30900
H859        H  0.11354862  0.12463799  0.13652669     0.10000
C860        C  0.14136296  0.16620465  0.12739688     0.03200
C861        C  0.14818000  0.17689232  0.09330953    -0.13200
C862        C  0.13928951  0.17844395  0.05262552    -0.08900
C863        C  0.12433523  0.16781548  0.04443456     0.06700
C864        C  0.11723521  0.15775193  0.07888705    -0.14000
S865        S  0.15276938  0.16444383  0.17983884    -0.30900
H866        H  0.15971857  0.18497781  0.09932469     0.10900
S867        S  0.11209206  0.16872614  0.99318975    -0.28000
H868        H  0.10477177  0.15104002  0.07375333     0.08200
H869        H  0.06935986  0.11082667  0.19155782     0.26600
H870        H  0.16755390  0.17456163  0.16754832     0.21400
H871        H  0.12706954  0.16820465  0.96575191     0.26700
H872        H  0.10317962  0.19270567  0.22380224     0.15600
C873        C  0.04163110  0.18099951  0.83388966    -0.11700
C874        C  0.05244324  0.17355916  0.86658567     0.14800
C875        C  0.04802138  0.15696883  0.88484864     0.01700
C876        C  0.03327496  0.14791967  0.86879935    -0.16100
C877        C  0.02241016  0.15522012  0.83565858    -0.10900
C878        C  0.02666929  0.17212059  0.81842952     0.08400
C879        C  0.06842484  0.18329100  0.88017517     0.09500
S880        S  0.06066896  0.14656597  0.92838782    -0.25200
H881        H  0.03013699  0.13511222  0.88286675     0.19700
S882        S  0.01438490  0.18253572  0.77455840    -0.30900
H883        H  0.04503832  0.19374586  0.81984597     0.10000
C884        C  0.08532919  0.17791865  0.86644349     0.03200
C885        C  0.10015427  0.18720865  0.88153730    -0.13200
C886        C  0.09841638  0.20186433  0.90992460    -0.08900
C887        C  0.08127704  0.20774368  0.92150506     0.06700
C888        C  0.06655472  0.19827640  0.90696182    -0.14000
S889        S  0.08799500  0.15920824  0.82980197    -0.30900
H890        H  0.11317460  0.18265457  0.87238576     0.10900
S891        S  0.07715404  0.22742575  0.95363158    -0.28000
H892        H  0.05349204  0.20261575  0.91659676     0.08200
H893        H  0.99967637  0.18552789  0.80196273     0.26600
H894        H  0.10652374  0.15937356  0.82874818     0.21400
H895        H  0.09077246  0.23724757  0.93361910     0.26700
H896        H  0.06706888  0.16218914  0.94778983     0.15600
C897        C  0.27566916  0.20630170  0.00670075    -0.11700
C898        C  0.26304399  0.21915769  0.01696453     0.14800
C899        C  0.26788227  0.23386790  0.04312239     0.01700
C900        C  0.28539834  0.23589744  0.05631716    -0.16100
C901        C  0.29824273  0.22335865  0.04493096    -0.10900
C902        C  0.29323983  0.20832480  0.01994844     0.08400
C903        C  0.24532332  0.21778765  0.99702232     0.09500
S904        S  0.25242085  0.25071069  0.05989883    -0.25200
H905        H  0.28903102  0.24737666  0.07581621     0.19700
S906        S  0.30881233  0.19205674  0.00080872    -0.30900
H907        H  0.27198380  0.19506969  0.98638775     0.10000
C908        C  0.24009074  0.22937954  0.96290497     0.03200
C909        C  0.22245673  0.22958827  0.94941751    -0.13200
C910        C  0.20994288  0.21827761  0.96889366    -0.08900
C911        C  0.21562518  0.20558563  0.00032757     0.06700
C912        C  0.23322356  0.20559325  0.01433699    -0.14000
S913        S  0.25578109  0.24427995  0.93749738    -0.30900
H914        H  0.21823193  0.23904178  0.92460773     0.10900
S915        S  0.20079626  0.19030870  0.02693945    -0.28000
H916        H  0.23735400  0.19652916  0.04018634     0.08200
H917        H  0.32174659  0.20451890  0.98883788     0.26600
H918        H  0.24381299  0.25291901  0.90922742     0.21400
H919        H  0.19549993  0.18259284  0.98655719     0.26700
H920        H  0.23747102  0.23973660  0.06069165     0.15600
C921        C  0.10500890  0.23155455  0.37773710    -0.11700
C922        C  0.09397154  0.22360709  0.40941826     0.14800
C923        C  0.09330638  0.23047195  0.45286795     0.01700
C924        C  0.10424556  0.24456819  0.46436159    -0.16100
C925        C  0.11558269  0.25244144  0.43307789    -0.10900
C926        C  0.11553062  0.24612463  0.38879198     0.08400
C927        C  0.08400040  0.20759925  0.39707900     0.09500
S928        S  0.07880037  0.22178794  0.49512229    -0.25200
H929        H  0.10386976  0.24943016  0.49822611     0.19700
S930        S  0.12785360  0.25646826  0.34455293    -0.30900
H931        H  0.10530330  0.22644050  0.34409698     0.10000
C932        C  0.06895972  0.20847203  0.36993381     0.03200
C933        C  0.06029627  0.19281775  0.35804534    -0.13200
C934        C  0.06619953  0.17624070  0.37334163    -0.08900
C935        C  0.08056685  0.17569718  0.40339569     0.06700
C936        C  0.08949588  0.19128849  0.41403139    -0.14000
S937        S  0.06076930  0.22951803  0.35064486    -0.30900
H938        H  0.04923928  0.19351912  0.33542070     0.10900
S939        S  0.08790569  0.15579119  0.43052310    -0.28000
H940        H  0.10074528  0.19075656  0.43617539     0.08200
H941        H  0.12458710  0.27386381  0.35885328     0.26600
H942        H  0.04516421  0.22305867  0.33132983     0.21400
H943        H  0.07079050  0.14905912  0.43678801     0.26700
H944        H  0.06525540  0.21660964  0.46604129     0.15600
C945        C  0.17210037  0.24463721  0.74484026    -0.11700
C946        C  0.15947086  0.25717001  0.73201735     0.14800
C947        C  0.14699536  0.26324178  0.76329753     0.01700
C948        C  0.14813056  0.25753934  0.80713901    -0.16100
C949        C  0.16090375  0.24524211  0.82027685    -0.10900
C950        C  0.17298344  0.23862144  0.78874829     0.08400
C951        C  0.15934777  0.26352324  0.68577390     0.09500
S952        S  0.12904229  0.27788336  0.74942113    -0.25200
H953        H  0.13863395  0.26242569  0.83111735     0.19700
S954        S  0.19018642  0.22318443  0.80274310    -0.30900
H955        H  0.18154232  0.23981466  0.72068876     0.10000
C956        C  0.16215400  0.28148064  0.67543457     0.03200
C957        C  0.15904465  0.28735762  0.63209823    -0.13200
C958        C  0.15384215  0.27551491  0.59878505    -0.08900
C959        C  0.15217909  0.25735339  0.60860322     0.06700
C960        C  0.15502286  0.25154390  0.65201655    -0.14000
S961        S  0.16974422  0.29685733  0.71722970    -0.30900
H962        H  0.16063770  0.30121367  0.62400448     0.10900
S963        S  0.14539435  0.24115636  0.56810404    -0.28000
H964        H  0.15301503  0.23772276  0.66002255     0.08200
H965        H  0.19337371  0.23000020  0.84548122     0.26600
H966        H  0.17062190  0.31180040  0.68948532     0.21400
H967        H  0.13325360  0.25217865  0.54634626     0.26700
H968        H  0.12690463  0.27194056  0.70549669     0.15600
C969        C  0.18264992  0.28537226  0.25635425    -0.11700
C970        C  0.16768810  0.28627562  0.22923270     0.14800
C971        C  0.15223847  0.29445960  0.24510580     0.01700
C972        C  0.15171249  0.30063993  0.28867552    -0.16100
C973        C  0.16632766  0.29890461  0.31675516    -0.10900
C974        C  0.18219051  0.29177759  0.29991495     0.08400
C975        C  0.16765129  0.27671812  0.18678684     0.09500
S976        S  0.13239995  0.29629540  0.21241469    -0.25200
H977        H  0.13948500  0.30601085  0.30143484     0.19700
S978        S  0.20211020  0.29033033  0.33238114    -0.30900
H979        H  0.19454786  0.27918994  0.24392955     0.10000
C980        C  0.17457411  0.28422105  0.14775096     0.03200
C981        C  0.17199303  0.27551155  0.10719089    -0.13200
C982        C  0.16262684  0.25948607  0.10529627    -0.08900
C983        C  0.15695860  0.25140584  0.14518643     0.06700
C984        C  0.15932778  0.26022624  0.18536689    -0.14000
S985        S  0.18549362  0.30541884  0.14931299    -0.30900
H986        H  0.17642029  0.28166542  0.07666830     0.10900
S987        S  0.14674899  0.22988526  0.14714847    -0.28000
H988        H  0.15436222  0.25435580  0.21577735     0.08200
H989        H  0.19862264  0.30524067  0.35886683     0.26600
H990        H  0.18973273  0.30620074  0.10383287     0.21400
H991        H  0.15691594  0.22284404  0.11228814     0.26700
H992        H  0.14084310  0.29761293  0.17096531     0.15600
C993        C  0.32848487  0.28282416  0.77744567    -0.11700
C994        C  0.34044217  0.29166917  0.80519517     0.14800
C995        C  0.35040978  0.30585329  0.78777312     0.01700
C996        C  0.34943468  0.30977478  0.74247117    -0.16100
C997        C  0.33841734  0.30010452  0.71396911    -0.10900
C998        C  0.32712028  0.28710314  0.73219256     0.08400
C999        C  0.34414730  0.28424977  0.84985860     0.09500
S1000       S  0.36514913  0.31899150  0.82127912    -0.25200
H1001       H  0.35793481  0.31999511  0.72909691     0.19700
S1002       S  0.31089231  0.27595292  0.69832496    -0.30900
H1003       H  0.32076723  0.27203538  0.79090120     0.10000
C1004       C  0.33119093  0.28296646  0.88332813     0.03200
C1005       C  0.33554934  0.27522836  0.92434166    -0.13200
C1006       C  0.35267968  0.26895230  0.93285222    -0.08900
C1007       C  0.36574145  0.27094561  0.89953293     0.06700
C1008       C  0.36119014  0.27801679  0.85832046    -0.14000
S1009       S  0.30929641  0.29159377  0.87438794    -0.30900
H1010       H  0.32552699  0.27394414  0.94975670     0.10900
S1011       S  0.38869502  0.26575970  0.90783552    -0.28000
H1012       H  0.37119763  0.27904390  0.83271470     0.08200
H1013       H  0.30240615  0.26688836  0.73312546     0.26600
H1014       H  0.30206260  0.28595900  0.91505935     0.21400
H1015       H  0.38936954  0.27300517  0.95089677     0.26700
H1016       H  0.35593758  0.31662810  0.86142613     0.15600
C1017       C  0.34017524  0.24663402  0.38523977    -0.11700
C1018       C  0.34861348  0.25430320  0.34856681     0.14800
C1019       C  0.35894680  0.26959011  0.35443416     0.01700
C1020       C  0.36040076  0.27705884  0.39657386    -0.16100
C1021       C  0.35206789  0.26948590  0.43375963    -0.10900
C1022       C  0.34201298  0.25385451  0.42787244     0.08400
C1023       C  0.34578947  0.24680458  0.30398640     0.09500
S1024       S  0.37014224  0.28057887  0.30925806    -0.25200
H1025       H  0.36818197  0.28897695  0.40021117     0.19700
S1026       S  0.33184829  0.24203255  0.47312008    -0.30900
H1027       H  0.33229346  0.23482576  0.38064781     0.10000
C1028       C  0.35733274  0.23413066  0.28603818     0.03200
C1029       C  0.35590172  0.22964588  0.24099230    -0.13200
C1030       C  0.34300387  0.23747888  0.21387414    -0.08900
C1031       C  0.33042328  0.24887871  0.23332420     0.06700
C1032       C  0.33214810  0.25365233  0.27793347    -0.14000
S1033       S  0.37469945  0.22478886  0.31962208    -0.30900
H1034       H  0.36549018  0.22081419  0.22630161     0.10900
S1035       S  0.31187696  0.25769365  0.20319345    -0.28000
H1036       H  0.32301655  0.26306907  0.29226086     0.08200
H1037       H  0.34662670  0.24336451  0.50116353     0.26600
H1038       H  0.38130742  0.21318394  0.28713827     0.21400
H1039       H  0.30988119  0.24295364  0.17512747     0.26700
H1040       H  0.37489346  0.26519992  0.28614953     0.15600
C1041       C  0.23047313  0.31815978  0.53937094    -0.11700
C1042       C  0.24225069  0.32446953  0.50713888     0.14800
C1043       C  0.23585731  0.32925146  0.46477128     0.01700
C1044       C  0.21806232  0.32659606  0.45468610    -0.16100
C1045       C  0.20648112  0.31934107  0.48616014    -0.10900
C1046       C  0.21264411  0.31574386  0.52954236     0.08400
C1047       C  0.26129782  0.32344233  0.51675934     0.09500
S1048       S  0.24989153  0.33809565  0.42176591    -0.25200
H1049       H  0.21338263  0.32954731  0.42148457     0.19700
S1050       S  0.19849913  0.30791351  0.57361946    -0.30900
H1051       H  0.23532833  0.31455788  0.57200371     0.10000
C1052       C  0.26942147  0.33430842  0.54875455     0.03200
C1053       C  0.28713419  0.33136141  0.55989761    -0.13200
C1054       C  0.29682799  0.31777829  0.53949654    -0.08900
C1055       C  0.28887339  0.30772519  0.50529259     0.06700
C1056       C  0.27116905  0.31044444  0.49498874    -0.14000
S1057       S  0.25722130  0.35184744  0.57530089    -0.30900
H1058       H  0.29328244  0.33927117  0.58554817     0.10900
S1059       S  0.30063655  0.29158806  0.47263009    -0.28000
H1060       H  0.26496698  0.30228116  0.46985945     0.08200
H1061       H  0.18325224  0.31667979  0.55881799     0.26600
H1062       H  0.27127955  0.35856874  0.60064684     0.21400
H1063       H  0.31652809  0.30118533  0.47148216     0.26700
H1064       H  0.26228299  0.34581400  0.45057537     0.15600
C1065       C  0.77059679  0.72184607  0.56627795    -0.11700
C1066       C  0.76558503  0.71289206  0.52758413     0.14800
C1067       C  0.77867831  0.70508345  0.50061326     0.01700
C1068       C  0.79652531  0.70731122  0.51155846    -0.16100
C1069       C  0.80155625  0.71712521  0.54906601    -0.10900
C1070       C  0.78835313  0.72384256  0.57756429     0.08400
C1071       C  0.74696101  0.71425881  0.51339053     0.09500
S1072       S  0.77346175  0.69293513  0.45080019    -0.25200
H1073       H  0.80655104  0.70191136  0.48980276     0.19700
S1074       S  0.79325315  0.73510554  0.62879486    -0.30900
H1075       H  0.76058219  0.72774498  0.58724793     0.10000
C1076       C  0.73374288  0.70286820  0.52971272     0.03200
C1077       C  0.71605424  0.70586380  0.51792321    -0.13200
C1078       C  0.71137355  0.72031309  0.49110840    -0.08900
C1079       C  0.72475849  0.73143783  0.47413321     0.06700
C1080       C  0.74232453  0.72831060  0.48550631    -0.14000
S1081       S  0.73940682  0.68483897  0.56624960    -0.30900
H1082       H  0.70577403  0.69740039  0.53102321     0.10900
S1083       S  0.72029001  0.74987644  0.43785973    -0.28000
H1084       H  0.75248718  0.73710341  0.47310067     0.08200
H1085       H  0.80889356  0.72582204  0.63776606     0.26600
H1086       H  0.72208957  0.67885863  0.57361009     0.21400
H1087       H  0.70582941  0.74201541  0.41631570     0.26700
H1088       H  0.75664351  0.68733295  0.46440994     0.15600
C1089       C  0.92222207  0.80289426  0.57830187    -0.11700
C1090       C  0.91516054  0.81345763  0.61221295     0.14800
C1091       C  0.89828359  0.80937025  0.62925411     0.01700
C1092       C  0.88933377  0.79440484  0.61380820    -0.16100
C1093       C  0.89647272  0.78356036  0.58040088    -0.10900
C1094       C  0.91298658  0.78824209  0.56171413     0.08400
C1095       C  0.92577133  0.82843985  0.62968331     0.09500
S1096       S  0.88737743  0.82271887  0.67064476    -0.25200
H1097       H  0.87660808  0.79122093  0.62811762     0.19700
S1098       S  0.92262969  0.77669357  0.51533312    -0.30900
H1099       H  0.93499089  0.80618632  0.56439993     0.10000
C1100       C  0.93284461  0.82810827  0.67297140     0.03200
C1101       C  0.94187339  0.84295323  0.68917576    -0.13200
C1102       C  0.94416231  0.85820625  0.66300973    -0.08900
C1103       C  0.93785355  0.85809719  0.61872065     0.06700
C1104       C  0.92861971  0.84332595  0.60277022    -0.14000
S1105       S  0.93047024  0.80872441  0.70758443    -0.30900
H1106       H  0.94679430  0.84283149  0.72293107     0.10900
S1107       S  0.94157529  0.87608018  0.58050657    -0.28000
H1108       H  0.92352535  0.84345811  0.56913617     0.08200
H1109       H  0.90658907  0.77453289  0.49250544     0.26600
H1110       H  0.93786584  0.81600398  0.74632853     0.21400
H1111       H  0.95847107  0.88025727  0.59666772     0.26700
H1112       H  0.89517155  0.83884636  0.65830570     0.15600
C1113       C  0.64072523  0.76155380  0.18618381    -0.11700
C1114       C  0.65787801  0.75902148  0.20203746     0.14800
C1115       C  0.67238677  0.76326550  0.17466047     0.01700
C1116       C  0.66940606  0.77048985  0.13256206    -0.16100
C1117       C  0.65222351  0.77343160  0.11694248    -0.10900
C1118       C  0.63772543  0.76851098  0.14385009     0.08400
C1119       C  0.66010405  0.75314520  0.24839871     0.09500
S1120       S  0.69495227  0.76033261  0.19200751    -0.25200
H1121       H  0.68060708  0.77410674  0.11209582     0.19700
S1122       S  0.61514069  0.77026463  0.12580148    -0.30900
H1123       H  0.62958878  0.75817603  0.20712769     0.10000
C1124       C  0.66414201  0.76531627  0.28209787     0.03200
C1125       C  0.66547564  0.75943888  0.32600381    -0.13200
C1126       C  0.66274902  0.74156217  0.33741540    -0.08900
C1127       C  0.65930865  0.72928172  0.30279914     0.06700
C1128       C  0.65771322  0.73528743  0.25895806    -0.14000
S1129       S  0.66682295  0.78851744  0.26943296    -0.30900
H1130       H  0.66812830  0.76905884  0.35172315     0.10900
S1131       S  0.65720701  0.70582542  0.31152425    -0.28000
H1132       H  0.65479335  0.72593827  0.23268777     0.08200
H1133       H  0.61858287  0.76530469  0.08159553     0.26600
H1134       H  0.67140253  0.79404045  0.31253638     0.21400
H1135       H  0.67209215  0.70480836  0.33929126     0.26700
H1136       H  0.69182138  0.74632112  0.22162818     0.15600
C1137       C  0.68301795  0.78122801  0.77625263    -0.11700
C1138       C  0.67197287  0.79019795  0.74661551     0.14800
C1139       C  0.66259340  0.80517222  0.76129010     0.01700
C1140       C  0.66298361  0.80970183  0.80619968    -0.16100
C1141       C  0.67286370  0.79980711  0.83687433    -0.10900
C1142       C  0.68391539  0.78613759  0.82093980     0.08400
C1143       C  0.66808586  0.78189256  0.70342155     0.09500
S1144       S  0.64906242  0.81833955  0.72480838    -0.25200
H1145       H  0.65473510  0.82048582  0.81748335     0.19700
S1146       S  0.69927154  0.77433398  0.85563235    -0.30900
H1147       H  0.69046391  0.76988421  0.76486385     0.10000
C1148       C  0.68083489  0.78016258  0.66979190     0.03200
C1149       C  0.67625226  0.77176312  0.62991100    -0.13200
C1150       C  0.65920538  0.76487633  0.62323269    -0.08900
C1151       C  0.64650568  0.76653350  0.65760956     0.06700
C1152       C  0.65117149  0.77498312  0.69713451    -0.14000
S1153       S  0.70271201  0.78909914  0.67714749    -0.30900
H1154       H  0.68600675  0.77055951  0.60381874     0.10900
S1155       S  0.62398016  0.75901805  0.65152669    -0.28000
H1156       H  0.64152991  0.77639348  0.72346268     0.08200
H1157       H  0.70342763  0.78902612  0.88233105     0.26600
H1158       H  0.70999398  0.78204650  0.63798707     0.21400
H1159       H  0.61930017  0.75998467  0.69671434     0.26700
H1160       H  0.65848345  0.81447480  0.68574058     0.15600
C1161       C  0.86352151  0.79844690  0.27980306    -0.11700
C1162       C  0.84987295  0.78745043  0.29457064     0.14800
C1163       C  0.83637326  0.78237349  0.26516189     0.01700
C1164       C  0.83734518  0.78756719  0.22081163    -0.16100
C1165       C  0.85155403  0.79770722  0.20511839    -0.10900
C1166       C  0.86468531  0.80342947  0.23523526     0.08400
C1167       C  0.85174668  0.77908495  0.33823797     0.09500
S1168       S  0.81834660  0.76820435  0.28139030    -0.25200
H1169       H  0.82715832  0.78322192  0.19805205     0.19700
S1170       S  0.88414937  0.81540612  0.21840696    -0.30900
H1171       H  0.87402489  0.80206282  0.30245758     0.10000
C1172       C  0.86032973  0.76270034  0.34221085     0.03200
C1173       C  0.86238581  0.75521184  0.38426431    -0.13200
C1174       C  0.85594504  0.76372054  0.42235691    -0.08900
C1175       C  0.84761320  0.78035568  0.41819671     0.06700
C1176       C  0.84549519  0.78780284  0.37605637    -0.14000
S1177       S  0.86893125  0.75149762  0.29375053    -0.30900
H1178       H  0.86910873  0.74270086  0.38757863     0.10900
S1179       S  0.84046062  0.79324039  0.46522195    -0.28000
H1180       H  0.83921402  0.80058620  0.37270334     0.08200
H1181       H  0.88747215  0.80478670  0.18093690     0.26600
H1182       H  0.87514675  0.73637500  0.31589767     0.21400
H1183       H  0.85519363  0.78919468  0.49168395     0.26700
H1184       H  0.81804610  0.77314483  0.32637311     0.15600
C1185       C  0.84043577  0.75329665  0.87075240    -0.11700
C1186       C  0.85403842  0.75359917  0.83935694     0.14800
C1187       C  0.87046726  0.76108357  0.85033328     0.01700
C1188       C  0.87292268  0.76815106  0.89255763    -0.16100
C1189       C  0.85916725  0.76848618  0.92388109    -0.10900
C1190       C  0.84273238  0.76080016  0.91273762     0.08400
C1191       C  0.85033109  0.74741334  0.79420308     0.09500
S1192       S  0.88874249  0.76230357  0.81194096    -0.25200
H1193       H  0.88567239  0.77375567  0.90066571     0.19700
S1194       S  0.82383759  0.76119662  0.94889975    -0.30900
H1195       H  0.82774525  0.74774650  0.86184190     0.10000
C1196       C  0.85688617  0.73126203  0.77833979     0.03200
C1197       C  0.85500866  0.72718487  0.73324577    -0.13200
C1198       C  0.84695453  0.73912793  0.70375041    -0.08900
C1199       C  0.83936753  0.75484682  0.72085371     0.06700
C1200       C  0.84122389  0.75877995  0.76579880    -0.14000
S1201       S  0.86824003  0.71627997  0.81520505    -0.30900
H1202       H  0.86063101  0.71506510  0.72059426     0.10900
S1203       S  0.82742201  0.77070595  0.68778772    -0.28000
H1204       H  0.83602967  0.77111834  0.77855909     0.08200
H1205       H  0.82631790  0.77902846  0.96019388     0.26600
H1206       H  0.87200149  0.70325383  0.78329081     0.21400
H1207       H  0.81998529  0.75817124  0.65912944     0.26700
H1208       H  0.87870552  0.76438550  0.77309288     0.15600
C1209       C  0.74135959  0.82656040  0.99126152    -0.11700
C1210       C  0.74805784  0.81705317  0.02751771     0.14800
C1211       C  0.73630539  0.80763522  0.05519812     0.01700
C1212       C  0.71830452  0.80740190  0.04508166    -0.16100
C1213       C  0.71166159  0.81608501  0.00734249    -0.10900
C1214       C  0.72340822  0.82598149  0.98048084     0.08400
C1215       C  0.76742135  0.81596436  0.03337271     0.09500
S1216       S  0.74345596  0.79512861  0.10295223    -0.25200
H1217       H  0.70946788  0.79981261  0.06603556     0.19700
S1218       S  0.71671437  0.83686351  0.92996442    -0.30900
H1219       H  0.75035859  0.83372641  0.96982072     0.10000
C1220       C  0.77767129  0.80514081  0.00541795     0.03200
C1221       C  0.79579614  0.80352853  0.01320690    -0.13200
C1222       C  0.80402500  0.81226800  0.04882279    -0.08900
C1223       C  0.79360314  0.82302030  0.07706629     0.06700
C1224       C  0.77552922  0.82496457  0.06858311    -0.14000
S1225       S  0.76754111  0.79274408  0.96086567    -0.30900
H1226       H  0.80358161  0.79526999  0.99154471     0.10900
S1227       S  0.80217270  0.83354520  0.12623193    -0.28000
H1228       H  0.76758116  0.83303113  0.09056215     0.08200
H1229       H  0.70652448  0.82259697  0.91447319     0.26600
H1230       H  0.78278811  0.78374611  0.94696005     0.21400
H1231       H  0.81219657  0.81885540  0.13970977     0.26700
H1232       H  0.75977969  0.78984173  0.08539996     0.15600
C1233       C  0.88333757  0.86006197  0.88287596    -0.11700
C1234       C  0.88476970  0.87747326  0.89828657     0.14800
C1235       C  0.87771760  0.88196789  0.94014538     0.01700
C1236       C  0.87167219  0.86849258  0.96816924    -0.16100
C1237       C  0.87241113  0.85073235  0.95470371    -0.10900
C1238       C  0.87708966  0.84667311  0.91047183     0.08400
C1239       C  0.89707170  0.88905503  0.87400158     0.09500
S1240       S  0.87771992  0.90429853  0.96097987    -0.25200
H1241       H  0.86777067  0.87175761  0.00183335     0.19700
S1242       S  0.87642003  0.82454012  0.88825602    -0.30900
H1243       H  0.88840335  0.85663064  0.85029802     0.10000
C1244       C  0.91452644  0.89094531  0.88930698     0.03200
C1245       C  0.92755661  0.89663636  0.85979573    -0.13200
C1246       C  0.92365508  0.90026005  0.81518067    -0.08900
C1247       C  0.90587332  0.89966920  0.80091489     0.06700
C1248       C  0.89277102  0.89425448  0.83067352    -0.14000
S1249       S  0.92076592  0.88394799  0.94461657    -0.30900
H1250       H  0.94108721  0.89701351  0.87069400     0.10900
S1251       S  0.89926718  0.90324390  0.74410688    -0.28000
H1252       H  0.87940353  0.89248702  0.81880483     0.08200
H1253       H  0.86255054  0.81874375  0.91570685     0.26600
H1254       H  0.93850265  0.88929385  0.94243016     0.21400
H1255       H  0.91181565  0.89149631  0.72644106     0.26700
H1256       H  0.87905778  0.91256378  0.91925035     0.15600
C1257       C  0.93451806  0.86106038  0.12193531    -0.11700
C1258       C  0.94843863  0.85040044  0.13666375     0.14800
C1259       C  0.94640133  0.83186781  0.13662683     0.01700
C1260       C  0.93054089  0.82445645  0.12187906    -0.16100
C1261       C  0.91668469  0.83508811  0.10613555    -0.10900
C1262       C  0.91887416  0.85366252  0.10588481     0.08400
C1263       C  0.96470240  0.85916186  0.15256279     0.09500
S1264       S  0.96361012  0.81696896  0.15400944    -0.25200
H1265       H  0.92913389  0.81020427  0.12192999     0.19700
S1266       S  0.90284847  0.86863295  0.08279993    -0.30900
H1267       H  0.93606762  0.87529985  0.12183687     0.10000
C1268       C  0.97576303  0.86860881  0.12324817     0.03200
C1269       C  0.99009163  0.87815554  0.14033302    -0.13200
C1270       C  0.99383135  0.87806273  0.18597250    -0.08900
C1271       C  0.98314139  0.86799787  0.21495902     0.06700
C1272       C  0.96859037  0.85884943  0.19807995    -0.14000
S1273       S  0.97177800  0.86828083  0.06405767    -0.30900
H1274       H  0.99845979  0.88570473  0.11816465     0.10900
S1275       S  0.98658896  0.86759751  0.27412363    -0.28000
H1276       H  0.96005520  0.85166529  0.22065072     0.08200
H1277       H  0.89971778  0.85835346  0.04464505     0.26600
H1278       H  0.98577278  0.87951046  0.05199686     0.21400
H1279       H  0.00337986  0.85988843  0.27059341     0.26700
H1280       H  0.97779860  0.82777454  0.14110550     0.15600
C1281       C  0.55027891  0.87657749  0.90201033    -0.11700
C1282       C  0.55677952  0.86473952  0.86999532     0.14800
C1283       C  0.54727041  0.86223786  0.83021303     0.01700
C1284       C  0.53165744  0.87163054  0.82327291    -0.16100
C1285       C  0.52538427  0.88387922  0.85465979    -0.10900
C1286       C  0.53473743  0.88612676  0.89489028     0.08400
C1287       C  0.57318165  0.85485823  0.87992581     0.09500
S1288       S  0.55460121  0.84772864  0.78639295    -0.25200
H1289       H  0.52466953  0.86980779  0.79220527     0.19700
S1290       S  0.52726500  0.90037829  0.93908088    -0.30900
H1291       H  0.55731147  0.87824376  0.93307275     0.10000
C1292       C  0.58936362  0.86368158  0.88593739     0.03200
C1293       C  0.60415640  0.85412903  0.90000844    -0.13200
C1294       C  0.60319229  0.83584588  0.90809981    -0.08900
C1295       C  0.58735825  0.82680707  0.89759870     0.06700
C1296       C  0.57246984  0.83644215  0.88477116    -0.14000
S1297       S  0.59115021  0.88717360  0.87613632    -0.30900
H1298       H  0.61627668  0.86114603  0.90694183     0.10900
S1299       S  0.58529552  0.80306420  0.89915706    -0.28000
H1300       H  0.56017290  0.82954501  0.87883420     0.08200
H1301       H  0.50923200  0.89678719  0.93293435     0.26600
H1302       H  0.60909595  0.88883773  0.88701253     0.21400
H1303       H  0.60275731  0.79982662  0.88562326     0.26700
H1304       H  0.57273192  0.85010086  0.79392058     0.15600
C1305       C  0.42024063  0.19325983  0.61516127    -0.11700
C1306       C  0.42124110  0.20890721  0.63997361     0.14800
C1307       C  0.43177517  0.20939419  0.67851368     0.01700
C1308       C  0.44036694  0.19406855  0.69256318    -0.16100
C1309       C  0.43907499  0.17816929  0.66853179    -0.10900
C1310       C  0.42928497  0.17804075  0.62848473     0.08400
C1311       C  0.41077066  0.22436694  0.62574759     0.09500
S1312       S  0.43457392  0.22908334  0.71158193    -0.25200
H1313       H  0.44785205  0.19453246  0.72319276     0.19700
S1314       S  0.42844149  0.15924443  0.59197224    -0.30900
H1315       H  0.41242049  0.19295111  0.58504468     0.10000
C1316       C  0.41527063  0.23408771  0.58749043     0.03200
C1317       C  0.40516132  0.24883944  0.57574628    -0.13200
C1318       C  0.39065145  0.25415599  0.60155592    -0.08900
C1319       C  0.38645842  0.24458759  0.64056744     0.06700
C1320       C  0.39639626  0.22968565  0.65182019    -0.14000
S1321       S  0.43409990  0.22793536  0.55414613    -0.30900
H1322       H  0.40838813  0.25610076  0.54581659     0.10900
S1323       S  0.36919936  0.25110651  0.67840594    -0.28000
H1324       H  0.39312956  0.22234498  0.68164902     0.08200
H1325       H  0.44615224  0.15483621  0.59952902     0.26600
H1326       H  0.43280730  0.24177833  0.52312252     0.21400
H1327       H  0.37195969  0.26937765  0.67315728     0.26700
H1328       H  0.43306581  0.24113367  0.67622530     0.15600
C1329       C  0.40917367  0.14546303  0.89345893    -0.11700
C1330       C  0.39217697  0.14854675  0.87696874     0.14800
C1331       C  0.38811848  0.14373050  0.83285754     0.01700
C1332       C  0.40155525  0.13759050  0.80496324    -0.16100
C1333       C  0.41895698  0.13618193  0.82039407    -0.10900
C1334       C  0.42259416  0.13926713  0.86570895     0.08400
C1335       C  0.38058499  0.16012151  0.90358509     0.09500
S1336       S  0.36634535  0.14619310  0.80977402    -0.25200
H1337       H  0.39863322  0.13503918  0.77030427     0.19700
S1338       S  0.44444531  0.13601324  0.88806102    -0.30900
H1339       H  0.41222288  0.14915375  0.92736454     0.10000
C1340       C  0.37498437  0.15535958  0.94660445     0.03200
C1341       C  0.36839299  0.16843395  0.97511959    -0.13200
C1342       C  0.36757610  0.18615260  0.96142619    -0.08900
C1343       C  0.37144008  0.19048535  0.91682768     0.06700
C1344       C  0.37801166  0.17746248  0.88851724    -0.14000
S1345       S  0.37727627  0.13289508  0.96594942    -0.30900
H1346       H  0.36526749  0.16511296  0.00923057     0.10900
S1347       S  0.36909425  0.21253954  0.89479503    -0.28000
H1348       H  0.38219433  0.18113404  0.85532251     0.08200
H1349       H  0.44026770  0.13959610  0.93271020     0.26600
H1350       H  0.36985487  0.13557024  0.00826780     0.21400
H1351       H  0.35548193  0.21761073  0.92388191     0.26700
H1352       H  0.35734505  0.14530709  0.85059849     0.15600
C1353       C  0.44454915  0.00530244  0.81589626    -0.11700
C1354       C  0.45279197  0.01129338  0.77691176     0.14800
C1355       C  0.46356166  0.99956815  0.75252068     0.01700
C1356       C  0.46592603  0.98229040  0.76777725    -0.16100
C1357       C  0.45825422  0.97645489  0.80768987    -0.10900
C1358       C  0.44732068  0.98813750  0.83183044     0.08400
C1359       C  0.45216365  0.03038901  0.76646050     0.09500
S1360       S  0.47532569  0.00595781  0.70285942    -0.25200
H1361       H  0.47427057  0.97342939  0.74886519     0.19700
S1362       S  0.43769341  0.98250979  0.88475898    -0.30900
H1363       H  0.43661195  0.01438178  0.83524770     0.10000
C1364       C  0.44375283  0.03716084  0.72831622     0.03200
C1365       C  0.44579354  0.05512688  0.71750008    -0.13200
C1366       C  0.45602903  0.06634630  0.74429324    -0.08900
C1367       C  0.46333667  0.05972101  0.78419863     0.06700
C1368       C  0.46137485  0.04183565  0.79462587    -0.14000
S1369       S  0.43070959  0.02289197  0.69327686    -0.30900
H1370       H  0.44000909  0.06028839  0.68729667     0.10900
S1371       S  0.47493426  0.07396395  0.82264552    -0.28000
H1372       H  0.46747983  0.03654753  0.82429804     0.08200
H1373       H  0.45244911  0.97314977  0.90035761     0.26600
H1374       H  0.42535364  0.03599411  0.66301184     0.21400
H1375       H  0.47940991  0.06093280  0.85398535     0.26700
H1376       H  0.47893584  0.02340538  0.71596135     0.15600
C1377       C  0.61061128  0.81083182  0.41772535    -0.11700
C1378       C  0.60008759  0.81855860  0.45069531     0.14800
C1379       C  0.59795419  0.80988622  0.49185748     0.01700
C1380       C  0.60663443  0.79384489  0.49935008    -0.16100
C1381       C  0.61758637  0.78630370  0.46676106    -0.10900
C1382       C  0.61918486  0.79476765  0.42502109     0.08400
C1383       C  0.59087024  0.83518043  0.43971441     0.09500
S1384       S  0.58467200  0.81872743  0.53633339    -0.25200
H1385       H  0.60532044  0.78753122  0.53151883     0.19700
S1386       S  0.63127319  0.78547547  0.37901278    -0.30900
H1387       H  0.61188286  0.81725101  0.38566554     0.10000
C1388       C  0.60014690  0.85119567  0.43506595     0.03200
C1389       C  0.59138787  0.86611655  0.41858554    -0.13200
C1390       C  0.57351779  0.86531964  0.40638872    -0.08900
C1391       C  0.56395259  0.84956460  0.41475681     0.06700
C1392       C  0.57278693  0.83464130  0.43065929    -0.14000
S1393       S  0.62327056  0.85245949  0.44892215    -0.30900
H1394       H  0.59876477  0.87815100  0.41285290     0.10900
S1395       S  0.54052056  0.84757983  0.40599498    -0.28000
H1396       H  0.56559085  0.82239214  0.43517749     0.08200
H1397       H  0.62711881  0.76779011  0.38901090     0.26600
H1398       H  0.62529453  0.87067158  0.44107781     0.21400
H1399       H  0.53670913  0.86518353  0.41756028     0.26700
H1400       H  0.58675653  0.83662361  0.52501017     0.15600
C1401       C  0.61766145  0.88001158  0.21502229    -0.11700
C1402       C  0.61842418  0.88976786  0.17545078     0.14800
C1403       C  0.60937970  0.90604890  0.17261863     0.01700
C1404       C  0.59851864  0.91137133  0.20778226    -0.16100
C1405       C  0.59676290  0.90083906  0.24580231    -0.10900
C1406       C  0.60705312  0.88544584  0.25028297     0.08400
C1407       C  0.62537547  0.88065876  0.13570770     0.09500
S1408       S  0.61025954  0.91990449  0.12392403    -0.25200
H1409       H  0.59057243  0.92318100  0.20430273     0.19700
S1410       S  0.60595795  0.87139622  0.29866721    -0.30900
H1411       H  0.62442128  0.86743508  0.21732684     0.10000
C1412       C  0.64291605  0.87458984  0.13319009     0.03200
C1413       C  0.64764570  0.86256087  0.09968942    -0.13200
C1414       C  0.63509159  0.85660352  0.06894432    -0.08900
C1415       C  0.61802067  0.86402247  0.06920156     0.06700
C1416       C  0.61327390  0.87569725  0.10287827    -0.14000
S1417       S  0.65904151  0.88176137  0.17339643    -0.30900
H1418       H  0.66081597  0.85708558  0.09885848     0.10900
S1419       S  0.60167366  0.85895581  0.02764428    -0.28000
H1420       H  0.59981391  0.88043883  0.10447015     0.08200
H1421       H  0.60205768  0.88505480  0.32873108     0.26600
H1422       H  0.67360662  0.87339246  0.15359752     0.21400
H1423       H  0.61397425  0.85762747  0.99291802     0.26700
H1424       H  0.62664702  0.91370485  0.10867429     0.15600
C1425       C  0.49830071  0.94162620  0.03872312    -0.11700
C1426       C  0.49409963  0.92629401  0.06259591     0.14800
C1427       C  0.48221123  0.91391008  0.04450713     0.01700
C1428       C  0.47499287  0.91696622  0.00262234    -0.16100
C1429       C  0.47986063  0.93183287  0.97760984    -0.10900
C1430       C  0.49130762  0.94454090  0.99639946     0.08400
C1431       C  0.50181315  0.92376765  0.10694495     0.09500
S1432       S  0.47640142  0.89356047  0.07216715    -0.25200
H1433       H  0.46649088  0.90698678  0.98815319     0.19700
S1434       S  0.49742575  0.96466967  0.96821251    -0.30900
H1435       H  0.50715662  0.95130568  0.05310001     0.10000
C1436       C  0.51940566  0.91829289  0.11237351     0.03200
C1437       C  0.52585508  0.91517910  0.15527695    -0.13200
C1438       C  0.51500001  0.91740962  0.19268169    -0.08900
C1439       C  0.49725450  0.92270859  0.18677046     0.06700
C1440       C  0.49098431  0.92605914  0.14407589    -0.14000
S1441       S  0.53341894  0.91477957  0.06463524    -0.30900
H1442       H  0.53941202  0.91111228  0.15977626     0.10900
S1443       S  0.48158897  0.92459012  0.23167813    -0.28000
H1444       H  0.47737514  0.93000811  0.13955881     0.08200
H1445       H  0.48190939  0.96596212  0.94288813     0.26600
H1446       H  0.54845528  0.90935501  0.08827687     0.21400
H1447       H  0.48773594  0.90979368  0.25521728     0.26700
H1448       H  0.49268467  0.89107004  0.09347830     0.15600
C1449       C  0.51602116  0.94457571  0.53556650    -0.11700
C1450       C  0.52268317  0.93192662  0.56508566     0.14800
C1451       C  0.53595368  0.92017013  0.55077444     0.01700
C1452       C  0.54204564  0.92114715  0.50710573    -0.16100
C1453       C  0.53472365  0.93315106  0.47676165    -0.10900
C1454       C  0.52198819  0.94542168  0.49168619     0.08400
C1455       C  0.51476926  0.93052171  0.60961435     0.09500
S1456       S  0.54490109  0.90291708  0.58551323    -0.25200
H1457       H  0.55172123  0.91159689  0.49595020     0.19700
S1458       S  0.51293036  0.96247623  0.45664640    -0.30900
H1459       H  0.50595723  0.95371234  0.54671839     0.10000
C1460       C  0.52438334  0.93457615  0.64821328     0.03200
C1461       C  0.51698670  0.93084160  0.68974023    -0.13200
C1462       C  0.50002187  0.92346619  0.69338694    -0.08900
C1463       C  0.48988769  0.92072404  0.65458320     0.06700
C1464       C  0.49749368  0.92411304  0.61305534    -0.14000
S1465       S  0.54602551  0.94445614  0.64452337    -0.30900
H1466       H  0.52460310  0.93334737  0.71949235     0.10900
S1467       S  0.46712897  0.91362891  0.65738996    -0.28000
H1468       H  0.49012411  0.92146739  0.58297259     0.08200
H1469       H  0.52829443  0.96481879  0.43108058     0.26600
H1470       H  0.54887544  0.94620641  0.69050077     0.21400
H1471       H  0.46361892  0.91429877  0.61152298     0.26700
H1472       H  0.52941792  0.89960233  0.60978410     0.15600
C1473       C  0.43679074  0.20114089  0.15692252    -0.11700
C1474       C  0.43906672  0.18308908  0.14795475     0.14800
C1475       C  0.42556577  0.17371330  0.12584809     0.01700
C1476       C  0.41027084  0.18260062  0.11278260    -0.16100
C1477       C  0.40827919  0.20079342  0.12024797    -0.10900
C1478       C  0.42155189  0.21006697  0.14345713     0.08400
C1479       C  0.45532864  0.17427000  0.16361202     0.09500
S1480       S  0.42730415  0.15059891  0.11186974    -0.25200
H1481       H  0.40020521  0.17542407  0.09466650     0.19700
S1482       S  0.41960258  0.23312098  0.15782787    -0.30900
H1483       H  0.44693509  0.20828872  0.17480466     0.10000
C1484       C  0.47190229  0.17794174  0.14444864     0.03200
C1485       C  0.48695611  0.16930414  0.16061700    -0.13200
C1486       C  0.48569539  0.15676734  0.19485374    -0.08900
C1487       C  0.46908439  0.15338750  0.21445051     0.06700
C1488       C  0.45412143  0.16205408  0.19845540    -0.14000
S1489       S  0.47376321  0.19299817  0.09810240    -0.30900
H1490       H  0.49967748  0.17195312  0.14577687     0.10900
S1491       S  0.46616722  0.13875008  0.26113193    -0.28000
H1492       H  0.44142403  0.15940305  0.21358917     0.08200
H1493       H  0.40112628  0.23310353  0.16179610     0.26600
H1494       H  0.49168312  0.18986891  0.08908473     0.21400
H1495       H  0.48246184  0.14264669  0.28111570     0.26700
H1496       H  0.44569390  0.15043928  0.10622947     0.15600
C1497       C  0.52405336  0.11054825  0.90681991    -0.11700
C1498       C  0.51201364  0.10638008  0.94058863     0.14800
C1499       C  0.49382212  0.10596317  0.93119102     0.01700
C1500       C  0.48796957  0.11085358  0.88911960    -0.16100
C1501       C  0.49990073  0.11591081  0.85594836    -0.10900
C1502       C  0.51818021  0.11543515  0.86456344     0.08400
C1503       C  0.51830684  0.10643584  0.98673415     0.09500
S1504       S  0.47744317  0.10004583  0.97206626    -0.25200
H1505       H  0.47397265  0.11070146  0.88214233     0.19700
S1506       S  0.53451137  0.12227689  0.82447777    -0.30900
H1507       H  0.53800818  0.11118157  0.91432370     0.10000
C1508       C  0.52813355  0.09244869  0.00506682     0.03200
C1509       C  0.53363909  0.09355159  0.04954174    -0.13200
C1510       C  0.52934429  0.10836681  0.07534121    -0.08900
C1511       C  0.51989032  0.12250049  0.05629830     0.06700
C1512       C  0.51439802  0.12132376  0.01239136    -0.14000
S1513       S  0.53287796  0.07301264  0.97249970    -0.30900
H1514       H  0.54078684  0.08273138  0.06463663     0.10900
S1515       S  0.51443024  0.14243690  0.08620515    -0.28000
H1516       H  0.50704612  0.13216630  0.99789989     0.08200
H1517       H  0.52429251  0.13578791  0.80541780     0.26600
H1518       H  0.54215183  0.06388326  0.00580508     0.21400
H1519       H  0.52939472  0.14250689  0.11372582     0.26700
H1520       H  0.48855730  0.08925154  0.99772427     0.15600
C1521       C  0.48825934  0.10366915  0.40775890    -0.11700
C1522       C  0.49446664  0.11418148  0.44253979     0.14800
C1523       C  0.50760552  0.12695870  0.43446193     0.01700
C1524       C  0.51391944  0.12928918  0.39135567    -0.16100
C1525       C  0.50762835  0.11893323  0.35599830    -0.10900
C1526       C  0.49447740  0.10600190  0.36451441     0.08400
C1527       C  0.48632876  0.11218906  0.48648116     0.09500
S1528       S  0.51674735  0.14077204  0.47757673    -0.25200
H1529       H  0.52407298  0.13911385  0.38561373     0.19700
S1530       S  0.48432716  0.09256485  0.32213558    -0.30900
H1531       H  0.47804283  0.09396858  0.41416830     0.10000
C1532       C  0.47416082  0.12467720  0.50236467     0.03200
C1533       C  0.46813779  0.12333776  0.54611105    -0.13200
C1534       C  0.47407270  0.10978675  0.57415218    -0.08900
C1535       C  0.48506790  0.09640048  0.55663949     0.06700
C1536       C  0.49122380  0.09785318  0.51307408    -0.14000
S1537       S  0.46678264  0.14261923  0.46739897    -0.30900
H1538       H  0.45955935  0.13342204  0.55916037     0.10900
S1539       S  0.49164772  0.07718777  0.58795697    -0.28000
H1540       H  0.50017877  0.08797371  0.50008789     0.08200
H1541       H  0.48285634  0.10631073  0.29104185     0.26600
H1542       H  0.45499789  0.15013279  0.49814253     0.21400
H1543       H  0.47615769  0.07631508  0.61362754     0.26700
H1544       H  0.51461041  0.12858164  0.51239450     0.15600
C1545       C  0.54703719  0.03949970  0.29406972    -0.11700
C1546       C  0.55840269  0.02871397  0.26934454     0.14800
C1547       C  0.56753802  0.03602682  0.23270470     0.01700
C1548       C  0.56464338  0.05371957  0.22080787    -0.16100
C1549       C  0.55288740  0.06434859  0.24491089    -0.10900
C1550       C  0.54441148  0.05721148  0.28275982     0.08400
C1551       C  0.55921282  0.00965045  0.28075032     0.09500
S1552       S  0.58278736  0.02341751  0.19947937    -0.25200
H1553       H  0.57128867  0.05910406  0.19192315     0.19700
S1554       S  0.53037037  0.07010598  0.31855919    -0.30900
H1555       H  0.54003680  0.03401048  0.32230382     0.10000
C1556       C  0.56618730  0.00370336  0.32157204     0.03200
C1557       C  0.56478806  0.98574674  0.33302779    -0.13200
C1558       C  0.55641364  0.97367825  0.30459040    -0.08900
C1559       C  0.55032917  0.97953033  0.26267996     0.06700
C1560       C  0.55162276  0.99742021  0.25147409    -0.14000
S1561       S  0.57666826  0.01902679  0.35923622    -0.30900
H1562       H  0.56954172  0.98121914  0.36497205     0.10900
S1563       S  0.54080446  0.96481521  0.22202472    -0.28000
H1564       H  0.54638169  0.00191863  0.21995134     0.08200
H1565       H  0.54024065  0.08576349  0.31435154     0.26600
H1566       H  0.58047380  0.00672550  0.39292813     0.21400
H1567       H  0.55079237  0.94993309  0.23420548     0.26700
H1568       H  0.58789073  0.01171187  0.23338118     0.15600
C1569       C  0.94277470  0.70051777  0.12657195    -0.11700
C1570       C  0.92439105  0.70109303  0.12220736     0.14800
C1571       C  0.91439105  0.68576044  0.13130008     0.01700
C1572       C  0.92278800  0.67078356  0.14828110    -0.16100
C1573       C  0.94109037  0.67051564  0.15523314    -0.10900
C1574       C  0.95125106  0.68533194  0.14225447     0.08400
C1575       C  0.91599226  0.71804638  0.10996042     0.09500
S1576       S  0.89086444  0.68459407  0.12302357    -0.25200
H1577       H  0.91486103  0.65941641  0.15732608     0.19700
S1578       S  0.97500977  0.68559849  0.14409038    -0.30900
H1579       H  0.95054921  0.71207688  0.11825997     0.10000
C1580       C  0.90569013  0.72757680  0.14069999     0.03200
C1581       C  0.89726800  0.74313625  0.12708262    -0.13200
C1582       C  0.89925760  0.74967470  0.08363041    -0.08900
C1583       C  0.91026897  0.74042392  0.05354314     0.06700
C1584       C  0.91838290  0.72470695  0.06694046    -0.14000
S1585       S  0.90345576  0.72007362  0.19747441    -0.30900
H1586       H  0.88903989  0.75025391  0.15039261     0.10900
S1587       S  0.91342995  0.74720511  0.99674593    -0.28000
H1588       H  0.92640964  0.71743847  0.04342113     0.08200
H1589       H  0.97704138  0.66756349  0.13395028     0.26600
H1590       H  0.89285115  0.73407865  0.21252042     0.21400
H1591       H  0.92248515  0.76269745  0.00894682     0.26700
H1592       H  0.89011440  0.69709083  0.08851275     0.15600
C1593       C  0.88018029  0.67035917  0.38538826    -0.11700
C1594       C  0.88489506  0.65384617  0.40295112     0.14800
C1595       C  0.88144161  0.65025652  0.44815995     0.01700
C1596       C  0.87535978  0.66382939  0.47570929    -0.16100
C1597       C  0.87239358  0.68090966  0.45893249    -0.10900
C1598       C  0.87361166  0.68375538  0.41263942     0.08400
C1599       C  0.89661423  0.64250330  0.37584593     0.09500
S1600       S  0.88563015  0.62900063  0.47308026    -0.25200
H1601       H  0.87407365  0.66129459  0.51101469     0.19700
S1602       S  0.86744916  0.70423892  0.38643632    -0.30900
H1603       H  0.88257768  0.67320167  0.35059599     0.10000
C1604       C  0.89186621  0.63673934  0.33294756     0.03200
C1605       C  0.90496952  0.63041918  0.30413184    -0.13200
C1606       C  0.92267427  0.62979946  0.31757637    -0.08900
C1607       C  0.92700221  0.63358533  0.36224772     0.06700
C1608       C  0.91395653  0.64007871  0.39070599    -0.14000
S1609       S  0.86930142  0.63820134  0.31432965    -0.30900
H1610       H  0.90162522  0.62720861  0.27010908     0.10900
S1611       S  0.94920467  0.63072445  0.38295885    -0.28000
H1612       H  0.91751264  0.64437762  0.42382570     0.08200
H1613       H  0.85460676  0.70880169  0.41817100     0.26600
H1614       H  0.87200686  0.63066621  0.27214714     0.21400
H1615       H  0.94562871  0.63493218  0.42760009     0.26700
H1616       H  0.88434057  0.61926263  0.43340910     0.15600
C1617       C  0.94549696  0.50233694  0.31410596    -0.11700
C1618       C  0.94731572  0.50611525  0.26872149     0.14800
C1619       C  0.94920475  0.49216595  0.23804947     0.01700
C1620       C  0.95065963  0.47490252  0.25370902    -0.16100
C1621       C  0.94995935  0.47119969  0.29931841    -0.10900
C1622       C  0.94677745  0.48500994  0.32992378     0.08400
C1623       C  0.95071262  0.52454675  0.25552093     0.09500
S1624       S  0.95097901  0.49568820  0.17889068    -0.25200
H1625       H  0.95305370  0.46430776  0.23021422     0.19700
S1626       S  0.94607473  0.48212318  0.38955867    -0.30900
H1627       H  0.94426114  0.51309914  0.33766509     0.10000
C1628       C  0.93768942  0.53769271  0.25774356     0.03200
C1629       C  0.94201905  0.55504901  0.24567443    -0.13200
C1630       C  0.95916667  0.55951499  0.23162015    -0.08900
C1631       C  0.97220620  0.54611930  0.22947382     0.06700
C1632       C  0.96777342  0.52887934  0.24166028    -0.14000
S1633       S  0.91553627  0.53227059  0.27498383    -0.30900
H1634       H  0.93202572  0.56521197  0.24758543     0.10900
S1635       S  0.99431671  0.55022206  0.20924396    -0.28000
H1636       H  0.97762602  0.51855459  0.24011294     0.08200
H1637       H  0.94618917  0.46366696  0.39183088     0.26600
H1638       H  0.90861034  0.54944844  0.27163520     0.21400
H1639       H  0.00181861  0.53421495  0.22355185     0.26700
H1640       H  0.94155867  0.51167286  0.17809984     0.15600
C1641       C  0.03396629  0.35272254  0.35432856    -0.11700
C1642       C  0.04926315  0.36168675  0.36743760     0.14800
C1643       C  0.04914914  0.38030942  0.36968779     0.01700
C1644       C  0.03402207  0.38952963  0.35708042    -0.16100
C1645       C  0.01861175  0.38059379  0.34404053    -0.10900
C1646       C  0.01850904  0.36186585  0.34438818     0.08400
C1647       C  0.06501392  0.35124315  0.37923939     0.09500
S1648       S  0.06773162  0.39307042  0.38897312    -0.25200
H1649       H  0.03432820  0.40383928  0.35762888     0.19700
S1650       S  0.99898949  0.34873902  0.33538959    -0.30900
H1651       H  0.03392298  0.33840814  0.35324722     0.10000
C1652       C  0.06473293  0.33936940  0.41528575     0.03200
C1653       C  0.08011429  0.33032482  0.42656534    -0.13200
C1654       C  0.09594313  0.33305253  0.40320596    -0.08900
C1655       C  0.09599459  0.34444828  0.36597175     0.06700
C1656       C  0.08054489  0.35341379  0.35446154    -0.14000
S1657       S  0.04522421  0.33665492  0.44922599    -0.30900
H1658       H  0.08001205  0.32177880  0.45541498     0.10900
S1659       S  0.11511970  0.34793789  0.33152209    -0.28000
H1660       H  0.08063730  0.36228110  0.32617296     0.08200
H1661       H  0.98813383  0.35968656  0.36145760     0.26600
H1662       H  0.05195055  0.32355321  0.47768074     0.21400
H1663       H  0.12134174  0.33051559  0.33547209     0.26700
H1664       H  0.07366631  0.38055277  0.42008521     0.15600
C1665       C  0.92697030  0.68127064  0.67561164    -0.11700
C1666       C  0.94231227  0.67961082  0.64990162     0.14800
C1667       C  0.94324505  0.68827517  0.60846291     0.01700
C1668       C  0.92853493  0.69730026  0.59233665    -0.16100
C1669       C  0.91285646  0.69860405  0.61722775    -0.10900
C1670       C  0.91248628  0.69105513  0.66037881     0.08400
C1671       C  0.95693245  0.66823372  0.66574230     0.09500
S1672       S  0.96282881  0.68822577  0.57437039    -0.25200
H1673       H  0.92937116  0.70317082  0.55955874     0.19700
S1674       S  0.89436534  0.69390046  0.69834603    -0.30900
H1675       H  0.92632268  0.67496955  0.70792074     0.10000
C1676       C  0.96731887  0.67288484  0.70266653     0.03200
C1677       C  0.98205840  0.66256744  0.71350669    -0.13200
C1678       C  0.98688827  0.64769124  0.68799862    -0.08900
C1679       C  0.97610540  0.64297327  0.65133161     0.06700
C1680       C  0.96120131  0.65307942  0.64126048    -0.14000
S1681       S  0.96235793  0.69244369  0.73472623    -0.30900
H1682       H  0.98999412  0.66630732  0.74185185     0.10900
S1683       S  0.98095658  0.62498011  0.61419378    -0.28000
H1684       H  0.95321276  0.64952461  0.61276987     0.08200
H1685       H  0.89188116  0.71183335  0.68763957     0.26600
H1686       H  0.97570814  0.69033816  0.76668535     0.21400
H1687       H  0.99850993  0.63035539  0.60724900     0.26700
H1688       H  0.97487370  0.68774693  0.60984572     0.15600
C1689       C  0.04233465  0.59873919  0.48882236    -0.11700
C1690       C  0.02441884  0.59968909  0.47799410     0.14800
C1691       C  0.01160653  0.59843180  0.51169388     0.01700
C1692       C  0.01694960  0.59771123  0.55582014    -0.16100
C1693       C  0.03487122  0.59821755  0.56737940    -0.10900
C1694       C  0.04771838  0.59771195  0.53321778     0.08400
C1695       C  0.01924832  0.60408733  0.43236110     0.09500
S1696       S  0.98823377  0.59934464  0.50083007    -0.25200
H1697       H  0.00689817  0.59768501  0.58137112     0.19700
S1698       S  0.07100464  0.59572151  0.54383164    -0.30900
H1699       H  0.05214420  0.59932550  0.46266610     0.10000
C1700       C  0.01513896  0.62162424  0.42095685     0.03200
C1701       C  0.00759308  0.62514671  0.37957207    -0.13200
C1702       C  0.00394962  0.61143997  0.34948922    -0.08900
C1703       C  0.00844965  0.59384029  0.36096390     0.06700
C1704       C  0.01640386  0.59043774  0.40191583    -0.14000
S1705       S  0.01916598  0.63944205  0.45965899    -0.30900
H1706       H  0.00443999  0.63863784  0.37067577     0.10900
S1707       S  0.00311474  0.57498406  0.32689935    -0.28000
H1708       H  0.01934983  0.57693715  0.41132991     0.08200
H1709       H  0.06894677  0.58463953  0.58106226     0.26600
H1710       H  0.01336855  0.65323770  0.43198460     0.21400
H1711       H  0.98616498  0.58108492  0.31584235     0.26700
H1712       H  0.98881816  0.59065620  0.45964109     0.15600
C1713       C  0.99599014  0.59489792  0.90365649    -0.11700
C1714       C  0.99554822  0.60893737  0.93391129     0.14800
C1715       C  0.00418485  0.62492283  0.92328090     0.01700
C1716       C  0.01226735  0.62680026  0.88181832    -0.16100
C1717       C  0.01266945  0.61279826  0.85113283    -0.10900
C1718       C  0.00474500  0.59647728  0.86298246     0.08400
C1719       C  0.98752866  0.60594627  0.97796425     0.09500
S1720       S  0.00575768  0.64326219  0.96143759    -0.25200
H1721       H  0.01834484  0.63934620  0.87360009     0.19700
S1722       S  0.00613218  0.57682782  0.82929446    -0.30900
H1723       H  0.98990625  0.58240992  0.91245708     0.10000
C1724       C  0.97251525  0.61525033  0.99245620     0.03200
C1725       C  0.96738132  0.61403738  0.03716178    -0.13200
C1726       C  0.97677042  0.60335783  0.06715595    -0.08900
C1727       C  0.99043745  0.59240627  0.05078937     0.06700
C1728       C  0.99586962  0.59410720  0.00675144    -0.14000
S1729       S  0.96023348  0.62896582  0.95440625    -0.30900
H1730       H  0.95664599  0.62214121  0.04919984     0.10900
S1731       S  0.00154997  0.57603130  0.08413231    -0.28000
H1732       H  0.00700585  0.58644163  0.99506433     0.08200
H1733       H  0.02395839  0.57943560  0.81810389     0.26600
H1734       H  0.94638964  0.63304087  0.98377680     0.21400
H1735       H  0.98664594  0.57176653  0.10988975     0.26700
H1736       H  0.00677828  0.63302423  0.00033806     0.15600
C1737       C  0.01212410  0.44081115  0.02321065    -0.11700
C1738       C  0.02195898  0.43172830  0.05510802     0.14800
C1739       C  0.03796885  0.42370956  0.04281657     0.01700
C1740       C  0.04299657  0.42352065  0.99820175    -0.16100
C1741       C  0.03254303  0.43147374  0.96514534    -0.10900
C1742       C  0.01729253  0.44108887  0.97848664     0.08400
C1743       C  0.01384552  0.42836357  0.09886214     0.09500
S1744       S  0.05211441  0.41278206  0.08235451    -0.25200
H1745       H  0.05492544  0.41651741  0.98926201     0.19700
S1746       S  0.00374501  0.45337258  0.93977152    -0.30900
H1747       H  0.99987563  0.44697224  0.03321593     0.10000
C1748       C  0.01117266  0.44183272  0.13038892     0.03200
C1749       C  0.00321648  0.43765567  0.17119747    -0.13200
C1750       C  0.99791804  0.42025718  0.18096546    -0.08900
C1751       C  0.00090954  0.40679413  0.14912239     0.06700
C1752       C  0.00848711  0.41108479  0.10836570    -0.14000
S1753       S  0.01822233  0.46417288  0.11899789    -0.30900
H1754       H  0.00100275  0.44798437  0.19544450     0.10900
S1755       S  0.99636732  0.38371332  0.15886409    -0.28000
H1756       H  0.01059523  0.40074644  0.08399778     0.08200
H1757       H  0.99242289  0.46120373  0.97110079     0.26600
H1758       H  0.01317350  0.47140764  0.16013294     0.21400
H1759       H  0.00333391  0.38372015  0.20221141     0.26700
H1760       H  0.04695326  0.42292200  0.11928789     0.15600
C1761       C  0.99375900  0.43740324  0.52421628    -0.11700
C1762       C  0.98784021  0.42365314  0.55157777     0.14800
C1763       C  0.97412002  0.41254711  0.53667966     0.01700
C1764       C  0.96705783  0.41503291  0.49425500    -0.16100
C1765       C  0.97376004  0.42801135  0.46545434    -0.10900
C1766       C  0.98680783  0.43981743  0.48160113     0.08400
C1767       C  0.99595066  0.42139091  0.59582545     0.09500
S1768       S  0.96568481  0.39438507  0.56922291    -0.25200
H1769       H  0.95704226  0.40596059  0.48268930     0.19700
S1770       S  0.99505218  0.45832345  0.44999358    -0.30900
H1771       H  0.00393982  0.44626819  0.53613922     0.10000
C1772       C  0.01298634  0.41427140  0.60071079     0.03200
C1773       C  0.01984515  0.41164139  0.64348140    -0.13200
C1774       C  0.00992656  0.41579154  0.68156155    -0.08900
C1775       C  0.99266708  0.42265241  0.67620284     0.06700
C1776       C  0.98607307  0.42568242  0.63355490    -0.14000
S1777       S  0.02572574  0.40795888  0.55251839    -0.30900
H1778       H  0.03299236  0.40631938  0.64727849     0.10900
S1779       S  0.97782384  0.42666763  0.72190564    -0.28000
H1780       H  0.97285545  0.43086750  0.62964949     0.08200
H1781       H  0.97905878  0.46159487  0.42790189     0.26600
H1782       H  0.04027960  0.40110738  0.57572684     0.21400
H1783       H  0.98201592  0.41085696  0.74414362     0.26700
H1784       H  0.98172971  0.39014807  0.58994145     0.15600
C1785       C  0.06724463  0.49090489  0.74350598    -0.11700
C1786       C  0.06387208  0.50464475  0.77371191     0.14800
C1787       C  0.05875615  0.50039365  0.81766418     0.01700
C1788       C  0.05670596  0.48265455  0.82990174    -0.16100
C1789       C  0.05907802  0.46904224  0.79891161    -0.10900
C1790       C  0.06492282  0.47318147  0.75562886     0.08400
C1791       C  0.06304893  0.52299495  0.75652282     0.09500
S1792       S  0.05332379  0.51688594  0.85874486    -0.25200
H1793       H  0.05207757  0.47949802  0.86306774     0.19700
S1794       S  0.06869505  0.45653529  0.71379006    -0.30900
H1795       H  0.07102632  0.49406286  0.70967868     0.10000
C1796       C  0.07495259  0.53638228  0.76954164     0.03200
C1797       C  0.07198561  0.55392662  0.75570121    -0.13200
C1798       C  0.05746552  0.55813934  0.72875546    -0.08900
C1799       C  0.04645823  0.54442944  0.71319711     0.06700
C1800       C  0.04920850  0.52714947  0.72762665    -0.14000
S1801       S  0.09369960  0.53113569  0.80395165    -0.30900
H1802       H  0.08056544  0.56443099  0.76706927     0.10900
S1803       S  0.02870379  0.54818090  0.67454046    -0.28000
H1804       H  0.04027097  0.51683865  0.71675238     0.08200
H1805       H  0.07253404  0.44268637  0.74331852     0.26600
H1806       H  0.10127183  0.54810872  0.80336665     0.21400
H1807       H  0.03753223  0.56145212  0.65049170     0.26700
H1808       H  0.04575650  0.52907978  0.82918213     0.15600
C1809       C  0.08481347  0.34292833  0.93935903    -0.11700
C1810       C  0.08168913  0.32669386  0.91841445     0.14800
C1811       C  0.06922419  0.32572560  0.88381626     0.01700
C1812       C  0.06103026  0.34117859  0.86897928    -0.16100
C1813       C  0.06486611  0.35774266  0.88801091    -0.10900
C1814       C  0.07650951  0.35846442  0.92478745     0.08400
C1815       C  0.09275136  0.31140122  0.93091624     0.09500
S1816       S  0.06395688  0.30537659  0.85552211    -0.25200
H1817       H  0.05212977  0.34029088  0.84092587     0.19700
S1818       S  0.08077969  0.37890567  0.95399016    -0.30900
H1819       H  0.09418139  0.34344036  0.96645574     0.10000
C1820       C  0.10805074  0.30719227  0.90660386     0.03200
C1821       C  0.11862592  0.29303177  0.92035977    -0.13200
C1822       C  0.11410321  0.28280015  0.95766784    -0.08900
C1823       C  0.09868188  0.28708166  0.98189011     0.06700
C1824       C  0.08820522  0.30130669  0.96824369    -0.14000
S1825       S  0.11414753  0.31994124  0.85816702    -0.30900
H1826       H  0.13035123  0.28973895  0.90158818     0.10900
S1827       S  0.09200592  0.27542615  0.03138827    -0.28000
H1828       H  0.07649484  0.30465245  0.98706288     0.08200
H1829       H  0.09399195  0.37242627  0.98239080     0.26600
H1830       H  0.12832663  0.30922309  0.84479785     0.21400
H1831       H  0.10921030  0.27316284  0.04782159     0.26700
H1832       H  0.06775037  0.29399821  0.89113061     0.15600
C1833       C  0.10785373  0.36959122  0.69837874    -0.11700
C1834       C  0.11354060  0.38192381  0.66669359     0.14800
C1835       C  0.10837549  0.39978572  0.67087668     0.01700
C1836       C  0.09684225  0.40467823  0.70511044    -0.16100
C1837       C  0.09044855  0.39206923  0.73523439    -0.10900
C1838       C  0.09663808  0.37450701  0.73286583     0.08400
C1839       C  0.12237957  0.37499318  0.62653614     0.09500
S1840       S  0.11539475  0.41668809  0.63249889    -0.25200
H1841       H  0.09217962  0.41818251  0.70691834     0.19700
S1842       S  0.09032418  0.35765787  0.77225524    -0.30900
H1843       H  0.11166432  0.35584703  0.69526065     0.10000
C1844       C  0.13833167  0.36546799  0.62909854     0.03200
C1845       C  0.14407935  0.35578369  0.59208927    -0.13200
C1846       C  0.13404427  0.35537154  0.55306047    -0.08900
C1847       C  0.11878749  0.36589697  0.54955758     0.06700
C1848       C  0.11309074  0.37554825  0.58630933    -0.14000
S1849       S  0.15081834  0.36487111  0.68015892    -0.30900
H1850       H  0.15566329  0.34749725  0.59456862     0.10900
S1851       S  0.10533267  0.36640171  0.50013630    -0.28000
H1852       H  0.10075758  0.38271355  0.58433326     0.08200
H1853       H  0.08945135  0.36920144  0.80878325     0.26600
H1854       H  0.16402844  0.35327342  0.66522667     0.21400
H1855       H  0.11924656  0.36319068  0.47035365     0.26700
H1856       H  0.13113599  0.40832808  0.61969394     0.15600
C1857       C  0.10167382  0.89350589  0.39564047    -0.11700
C1858       C  0.11854043  0.88947802  0.37950861     0.14800
C1859       C  0.12319921  0.89453459  0.33595263     0.01700
C1860       C  0.11033705  0.90161793  0.30787644    -0.16100
C1861       C  0.09287081  0.90369780  0.32248349    -0.10900
C1862       C  0.08883769  0.90071107  0.36774322     0.08400
C1863       C  0.12887907  0.87623641  0.40434774     0.09500
S1864       S  0.14486170  0.89071112  0.31330362    -0.25200
H1865       H  0.11366568  0.90408531  0.27338888     0.19700
S1866       S  0.06732709  0.90483728  0.39116171    -0.30900
H1867       H  0.09807658  0.88977137  0.42923499     0.10000
C1868       C  0.13637256  0.87981912  0.44612381     0.03200
C1869       C  0.14254503  0.86574151  0.47225830    -0.13200
C1870       C  0.14099305  0.84816106  0.45753071    -0.08900
C1871       C  0.13464786  0.84483349  0.41408584     0.06700
C1872       C  0.12877593  0.85892730  0.38804367    -0.14000
S1873       S  0.13740407  0.90220304  0.46658281    -0.30900
H1874       H  0.14744315  0.86833771  0.50540351     0.10900
S1875       S  0.13337692  0.82269214  0.39166621    -0.28000
H1876       H  0.12308254  0.85639096  0.35567086     0.08200
H1877       H  0.06280995  0.91836499  0.36117664     0.26600
H1878       H  0.14648202  0.89833391  0.50614224     0.21400
H1879       H  0.12544622  0.82705050  0.35088528     0.26700
H1880       H  0.15364905  0.89044796  0.35443980     0.15600
C1881       C  0.04705919  0.85095017  0.70327938    -0.11700
C1882       C  0.05546359  0.85555066  0.66341009     0.14800
C1883       C  0.04963405  0.87057747  0.63976285     0.01700
C1884       C  0.03543538  0.88041006  0.65598917    -0.16100
C1885       C  0.02706033  0.87598221  0.69617778    -0.10900
C1886       C  0.03327727  0.86118063  0.72044143     0.08400
C1887       C  0.07025651  0.84454265  0.64704081     0.09500
S1888       S  0.05983323  0.87804949  0.58888898    -0.25200
H1889       H  0.03092793  0.89169412  0.63695962     0.19700
S1890       S  0.02497880  0.85513127  0.77449752    -0.30900
H1891       H  0.05157559  0.83951657  0.72171874     0.10000
C1892       C  0.08658429  0.84402874  0.66935789     0.03200
C1893       C  0.10086129  0.83521751  0.64973070    -0.13200
C1894       C  0.09922167  0.82694085  0.60811759    -0.08900
C1895       C  0.08260317  0.82698467  0.58667231     0.06700
C1896       C  0.06830836  0.83548311  0.60672678    -0.14000
S1897       S  0.08962359  0.85549423  0.72145443    -0.30900
H1898       H  0.11350550  0.83513439  0.66638244     0.10900
S1899       S  0.07902744  0.81789581  0.53204518    -0.28000
H1900       H  0.05575229  0.83585959  0.58960111     0.08200
H1901       H  0.02405303  0.87263458  0.79012391     0.26600
H1902       H  0.10666861  0.84913056  0.73036368     0.21400
H1903       H  0.09441307  0.82533366  0.51373046     0.26700
H1904       H  0.07703373  0.87278485  0.60002248     0.15600
C1905       C  0.09078340  0.73154480  0.59416092    -0.11700
C1906       C  0.09897757  0.71592430  0.60811594     0.14800
C1907       C  0.11756190  0.71526794  0.61035615     0.01700
C1908       C  0.12749018  0.72999061  0.59728952    -0.16100
C1909       C  0.11931077  0.74568792  0.58331664    -0.10900
C1910       C  0.10065262  0.74651419  0.58310656     0.08400
C1911       C  0.08780827  0.70065169  0.62077220     0.09500
S1912       S  0.12937833  0.69615445  0.63014063    -0.25200
H1913       H  0.14173993  0.72915891  0.59810163     0.19700
S1914       S  0.08857834  0.76652142  0.57211271    -0.30900
H1915       H  0.07652306  0.73222374  0.59311692     0.10000
C1916       C  0.07655438  0.70142188  0.65799413     0.03200
C1917       C  0.06713384  0.68632738  0.67062131    -0.13200
C1918       C  0.06878761  0.67032882  0.64720647    -0.08900
C1919       C  0.07921179  0.66994331  0.60824373     0.06700
C1920       C  0.08869067  0.68504261  0.59568405    -0.14000
S1921       S  0.07520599  0.72113936  0.69173606    -0.30900
H1922       H  0.05928439  0.68672144  0.70065347     0.10900
S1923       S  0.08076483  0.65078804  0.57287793    -0.28000
H1924       H  0.09696180  0.68459841  0.56633570     0.08200
H1925       H  0.09972549  0.77700193  0.59857423     0.26600
H1926       H  0.06146283  0.71537146  0.71960664     0.21400
H1927       H  0.06345071  0.64491202  0.58091027     0.26700
H1928       H  0.11660634  0.69084072  0.66129365     0.15600
C1929       C  0.40173446  0.88058583  0.70643265    -0.11700
C1930       C  0.39979620  0.89134964  0.66889361     0.14800
C1931       C  0.40729661  0.90847183  0.66877388     0.01700
C1932       C  0.41790244  0.91375470  0.70458093    -0.16100
C1933       C  0.42093339  0.90229922  0.74038560    -0.10900
C1934       C  0.41226416  0.88583854  0.74205082     0.08400
C1935       C  0.39214302  0.88288879  0.62902803     0.09500
S1936       S  0.40468291  0.92366134  0.62307930    -0.25200
H1937       H  0.42461386  0.92639179  0.70330303     0.19700
S1938       S  0.41547311  0.87097299  0.78838612    -0.30900
H1939       H  0.39591500  0.86750967  0.70643271     0.10000
C1940       C  0.40315690  0.87706645  0.59419205     0.03200
C1941       C  0.39656183  0.86501490  0.56311096    -0.13200
C1942       C  0.37928340  0.85856329  0.56623185    -0.08900
C1943       C  0.36790935  0.86521989  0.59928462     0.06700
C1944       C  0.37450818  0.87724273  0.63052086    -0.14000
S1945       S  0.42616166  0.88327926  0.59197156    -0.30900
H1946       H  0.40520018  0.85977826  0.53764090     0.10900
S1947       S  0.34556166  0.85757902  0.60624506    -0.28000
H1948       H  0.36613880  0.88147226  0.65770113     0.08200
H1949       H  0.40347612  0.85788888  0.77466638     0.26600
H1950       H  0.42984134  0.87577760  0.55020676     0.21400
H1951       H  0.34229457  0.85406608  0.56121122     0.26700
H1952       H  0.38933358  0.91592370  0.60562158     0.15600
C1953       C  0.46963061  0.85684818  0.33347913    -0.11700
C1954       C  0.46042263  0.86045246  0.37271639     0.14800
C1955       C  0.46675227  0.87361428  0.40191147     0.01700
C1956       C  0.48178109  0.88331670  0.39040806    -0.16100
C1957       C  0.49096495  0.87991940  0.35078602    -0.10900
C1958       C  0.48465625  0.86651911  0.32188315     0.08400
C1959       C  0.44378914  0.85090586  0.38135530     0.09500
S1960       S  0.45621431  0.87869887  0.45417299    -0.25200
H1961       H  0.48649616  0.89343319  0.41295558     0.19700
S1962       S  0.49438600  0.86170614  0.26851947    -0.30900
H1963       H  0.46469075  0.84683340  0.31093873     0.10000
C1964       C  0.42737372  0.85934005  0.37674476     0.03200
C1965       C  0.41206681  0.85061561  0.39083721    -0.13200
C1966       C  0.41282690  0.83347595  0.40884301    -0.08900
C1967       C  0.42914788  0.82438589  0.40853522     0.06700
C1968       C  0.44446479  0.83330400  0.39554595    -0.14000
S1969       S  0.42601302  0.88140397  0.35408241    -0.30900
H1970       H  0.39962552  0.85758569  0.39008782     0.10900
S1971       S  0.43135911  0.80147211  0.42404679    -0.28000
H1972       H  0.45705679  0.82660079  0.39733289     0.08200
H1973       H  0.49759425  0.87943893  0.25722646     0.26600
H1974       H  0.40751989  0.88262992  0.35428412     0.21400
H1975       H  0.41469199  0.79642458  0.40789484     0.26700
H1976       H  0.44939968  0.86171176  0.46208128     0.15600
C1977       C  0.24355834  0.80484376  0.54324740    -0.11700
C1978       C  0.24781708  0.82218050  0.53101463     0.14800
C1979       C  0.23426979  0.83483575  0.52725321     0.01700
C1980       C  0.21677692  0.82981107  0.53559968    -0.16100
C1981       C  0.21244436  0.81237879  0.54784574    -0.10900
C1982       C  0.22620325  0.79983587  0.55216804     0.08400
C1983       C  0.26645991  0.82599674  0.52012585     0.09500
S1984       S  0.23841221  0.85746840  0.51165753    -0.25200
H1985       H  0.20644479  0.83957994  0.53207102     0.19700
S1986       S  0.22284151  0.77733628  0.57003292    -0.30900
H1987       H  0.25394942  0.79508570  0.54602434     0.10000
C1988       C  0.27958951  0.82568546  0.55325135     0.03200
C1989       C  0.29739669  0.82535768  0.54073459    -0.13200
C1990       C  0.30227074  0.82555796  0.49578722    -0.08900
C1991       C  0.28914067  0.82729334  0.46284123     0.06700
C1992       C  0.27137167  0.82738648  0.47534721    -0.14000
S1993       S  0.27360791  0.82486755  0.61132419    -0.30900
H1994       H  0.30752933  0.82396610  0.56582538     0.10900
S1995       S  0.29410324  0.82778270  0.40422813    -0.28000
H1996       H  0.26128421  0.82761118  0.44987328     0.08200
H1997       H  0.21029097  0.78161102  0.60254898     0.26600
H1998       H  0.29085411  0.82581993  0.62827555     0.21400
H1999       H  0.31088810  0.83543606  0.40826397     0.26700
H2000       H  0.25570626  0.85832578  0.52820082     0.15600
C2001       C  0.10048982  0.80998338  0.07350879    -0.11700
C2002       C  0.10235351  0.81588117  0.11735041     0.14800
C2003       C  0.11290006  0.80616738  0.14730059     0.01700
C2004       C  0.12181941  0.79114725  0.13228110    -0.16100
C2005       C  0.12013423  0.78527488  0.08821085    -0.10900
C2006       C  0.10937236  0.79495840  0.05845017     0.08400
C2007       C  0.09363830  0.83254620  0.13028131     0.09500
S2008       S  0.11549925  0.81216345  0.20500472    -0.25200
H2009       H  0.12988445  0.78377427  0.15548884     0.19700
S2010       S  0.10715154  0.78955903  0.00033541    -0.30900
H2011       H  0.09248105  0.81749394  0.05044959     0.10000
C2012       C  0.10338966  0.84813399  0.13751990     0.03200
C2013       C  0.09470391  0.86335323  0.15238653    -0.13200
C2014       C  0.07643793  0.86332091  0.15982448    -0.08900
C2015       C  0.06655277  0.84799745  0.14938445     0.06700
C2016       C  0.07528560  0.83274797  0.13522713    -0.14000
S2017       S  0.12690502  0.84859170  0.12820351    -0.30900
H2018       H  0.10226716  0.87510856  0.15996389     0.10900
S2019       S  0.04281614  0.84712000  0.15264210    -0.28000
H2020       H  0.06774877  0.82088937  0.12833383     0.08200
H2021       H  0.12485838  0.78463900  0.99454462     0.26600
H2022       H  0.12952757  0.86642015  0.13962821     0.21400
H2023       H  0.04018798  0.86491332  0.14079338     0.26700
H2024       H  0.09924141  0.82082601  0.20974713     0.15600
C2025       C  0.11190253  0.66000771  0.93746785    -0.11700
C2026       C  0.12359364  0.65596515  0.90288850     0.14800
C2027       C  0.14073780  0.66325894  0.90315721     0.01700
C2028       C  0.14543816  0.67520665  0.93665828    -0.16100
C2029       C  0.13330219  0.68000827  0.96966436    -0.10900
C2030       C  0.11660851  0.67177097  0.97097323     0.08400
C2031       C  0.11612588  0.64700946  0.86365964     0.09500
S2032       S  0.15678395  0.65851455  0.86059733    -0.25200
H2033       H  0.15830904  0.68141929  0.93575096     0.19700
S2034       S  0.10056814  0.67606978  0.01389256    -0.30900
H2035       H  0.09867852  0.65456682  0.93724408     0.10000
C2036       C  0.10854901  0.63001512  0.86657794     0.03200
C2037       C  0.09740443  0.62412321  0.83247358    -0.13200
C2038       C  0.09374983  0.63502438  0.79601975    -0.08900
C2039       C  0.10266389  0.65128196  0.79129521     0.06700
C2040       C  0.11365406  0.65715812  0.82525489    -0.14000
S2041       S  0.11228317  0.61633844  0.91481752    -0.30900
H2042       H  0.09058411  0.61160844  0.83563233     0.10900
S2043       S  0.09971022  0.66553585  0.74387204    -0.28000
H2044       H  0.11946454  0.67021861  0.82292506     0.08200
H2045       H  0.11308917  0.67754226  0.04807251     0.26600
H2046       H  0.10277486  0.60155026  0.89970947     0.21400
H2047       H  0.09740027  0.65167652  0.71334679     0.26700
H2048       H  0.14971148  0.64204951  0.84829350     0.15600
C2049       C  0.08607977  0.68006378  0.17453270    -0.11700
C2050       C  0.06942950  0.68473722  0.15836091     0.14800
C2051       C  0.06773121  0.69922086  0.12934220     0.01700
C2052       C  0.08285379  0.70769943  0.11390206    -0.16100
C2053       C  0.09977166  0.70236595  0.12759958    -0.10900
C2054       C  0.10123860  0.68890166  0.16014276     0.08400
C2055       C  0.05420107  0.67365176  0.17017313     0.09500
S2056       S  0.04671519  0.70697830  0.10918547    -0.25200
H2057       H  0.08131689  0.71814803  0.08960270     0.19700
S2058       S  0.12184181  0.68240123  0.18495443    -0.30900
H2059       H  0.08728558  0.66923815  0.19792409     0.10000
C2060       C  0.04659322  0.66205336  0.13895766     0.03200
C2061       C  0.03179656  0.65210462  0.15110024    -0.13200
C2062       C  0.02460592  0.65346073  0.19392218    -0.08900
C2063       C  0.03277498  0.66457774  0.22565259     0.06700
C2064       C  0.04732759  0.67472283  0.21321988    -0.14000
S2065       S  0.05593772  0.65969102  0.08400554    -0.30900
H2066       H  0.02571994  0.64333366  0.12715017     0.10900
S2067       S  0.02590930  0.66572373  0.28301602    -0.28000
H2068       H  0.05346810  0.68339339  0.23734963     0.08200
H2069       H  0.12861116  0.69969424  0.18678660     0.26600
H2070       H  0.04308135  0.64807455  0.06722472     0.21400
H2071       H  0.02231112  0.64754791  0.28699084     0.26700
H2072       H  0.03677029  0.70160117  0.14623430     0.15600
C2073       C  0.16182176  0.78467615  0.87359056    -0.11700
C2074       C  0.15968210  0.77350908  0.83696638     0.14800
C2075       C  0.15538795  0.75556697  0.84350057     0.01700
C2076       C  0.15305322  0.74924810  0.88667654    -0.16100
C2077       C  0.15483409  0.76046947  0.92357959    -0.10900
C2078       C  0.15953789  0.77836865  0.91676709     0.08400
C2079       C  0.16169498  0.78105970  0.79231487     0.09500
S2080       S  0.15254767  0.74012706  0.79834364    -0.25200
H2081       H  0.14964617  0.73546490  0.89146183     0.19700
S2082       S  0.16169303  0.79407903  0.96131829    -0.30900
H2083       H  0.16511666  0.79846425  0.86838895     0.10000
C2084       C  0.14822407  0.79134031  0.77331069     0.03200
C2085       C  0.15012606  0.79738335  0.72966048    -0.13200
C2086       C  0.16518793  0.79321815  0.70469945    -0.08900
C2087       C  0.17907720  0.78370585  0.72488699     0.06700
C2088       C  0.17710147  0.77757795  0.76834762    -0.14000
S2089       S  0.12812565  0.79571708  0.80359029    -0.30900
H2090       H  0.13941744  0.80451581  0.71408475     0.10900
S2091       S  0.19965637  0.77917623  0.69729584    -0.28000
H2092       H  0.18756336  0.76993956  0.78354200     0.08200
H2093       H  0.17720931  0.78617786  0.97740727     0.26600
H2094       H  0.12000542  0.80613275  0.77075092     0.21400
H2095       H  0.19976000  0.79500759  0.67275262     0.26700
H2096       H  0.14619446  0.75234940  0.76708678     0.15600
C2097       C  0.18432765  0.74567680  0.26823477    -0.11700
C2098       C  0.16887220  0.74496188  0.29380689     0.14800
C2099       C  0.15305183  0.73885981  0.27442045     0.01700
C2100       C  0.15312444  0.73324323  0.23040235    -0.16100
C2101       C  0.16838271  0.73451211  0.20442772    -0.10900
C2102       C  0.18423837  0.74053912  0.22360622     0.08400
C2103       C  0.16918911  0.75177759  0.33957725     0.09500
S2104       S  0.13207396  0.73910014  0.30278651    -0.25200
H2105       H  0.14084124  0.72902123  0.21536616     0.19700
S2106       S  0.20462761  0.74198753  0.19293874    -0.30900
H2107       H  0.19644154  0.75047524  0.28301568     0.10000
C2108       C  0.16535497  0.74084336  0.37624947     0.03200
C2109       C  0.16238518  0.74859684  0.41779010    -0.13200
C2110       C  0.16357745  0.76695627  0.42317651    -0.08900
C2111       C  0.16933891  0.77759192  0.38752756     0.06700
C2112       C  0.17177853  0.76993673  0.34583617    -0.14000
S2113       S  0.16389931  0.71714962  0.36987069    -0.30900
H2114       H  0.15849948  0.74046268  0.44575315     0.10900
S2115       S  0.17410756  0.80082529  0.39333799    -0.28000
H2116       H  0.17525771  0.77824751  0.31782037     0.08200
H2117       H  0.20076814  0.72834411  0.16272510     0.26600
H2118       H  0.15887651  0.71337855  0.41387576     0.21400
H2119       H  0.17846260  0.80022028  0.43874102     0.26700
H2120       H  0.13524380  0.75457313  0.32736069     0.15600
C2121       C  0.44077996  0.83600101  0.92364098    -0.11700
C2122       C  0.42230653  0.83601515  0.92552534     0.14800
C2123       C  0.41312586  0.85185145  0.91682436     0.01700
C2124       C  0.42246246  0.86684341  0.90314383    -0.16100
C2125       C  0.44089170  0.86656883  0.89823733    -0.10900
C2126       C  0.45016791  0.85113134  0.91073941     0.08400
C2127       C  0.41295696  0.81928533  0.93582422     0.09500
S2128       S  0.38946379  0.85362671  0.92076973    -0.25200
H2129       H  0.41512138  0.87860111  0.89431231     0.19700
S2130       S  0.47389773  0.84997036  0.91169387    -0.30900
H2131       H  0.44792028  0.82403759  0.93175071     0.10000
C2132       C  0.40373162  0.80981850  0.90283068     0.03200
C2133       C  0.39434134  0.79449979  0.91459114    -0.13200
C2134       C  0.39417184  0.78829772  0.95862548    -0.08900
C2135       C  0.40357818  0.79777795  0.99155784     0.06700
C2136       C  0.41295535  0.81306894  0.97966107    -0.14000
S2137       S  0.40408960  0.81716915  0.84568513    -0.30900
H2138       H  0.38716706  0.78725011  0.88939655     0.10900
S2139       S  0.40266651  0.79134132  0.04941945    -0.28000
H2140       H  0.41994512  0.82055350  0.00474972     0.08200
H2141       H  0.47638750  0.86778675  0.92357515     0.26600
H2142       H  0.39391942  0.80326998  0.82818451     0.21400
H2143       H  0.41416959  0.80439346  0.06574815     0.26700
H2144       H  0.38719709  0.84064671  0.95368553     0.15600
C2145       C  0.33252300  0.75525085  0.76985982    -0.11700
C2146       C  0.34774629  0.75321424  0.74405984     0.14800
C2147       C  0.36226827  0.74383135  0.76126166     0.01700
C2148       C  0.36166166  0.73764713  0.80494294    -0.16100
C2149       C  0.34679415  0.74049637  0.83168736    -0.10900
C2150       C  0.33180152  0.74878453  0.81329491     0.08400
C2151       C  0.34865328  0.76223619  0.70083514     0.09500
S2152       S  0.38224088  0.74014038  0.73004359    -0.25200
H2153       H  0.37321901  0.73136317  0.81879222     0.19700
S2154       S  0.31147860  0.75160976  0.84359228    -0.30900
H2155       H  0.32128205  0.76224434  0.75634155     0.10000
C2156       C  0.34019658  0.75534967  0.66307966     0.03200
C2157       C  0.34235560  0.76387334  0.62213763    -0.13200
C2158       C  0.35260977  0.77930070  0.61848058    -0.08900
C2159       C  0.35991995  0.78686721  0.65733871     0.06700
C2160       C  0.35818065  0.77804096  0.69784237    -0.14000
S2161       S  0.32744534  0.73523949  0.66669247    -0.30900
H2162       H  0.33663434  0.75808035  0.59258820     0.10900
S2163       S  0.37105734  0.80794331  0.65790135    -0.28000
H2164       H  0.36418238  0.78358213  0.72740695     0.08200
H2165       H  0.31339067  0.73638091  0.86998766     0.26600
H2166       H  0.32132531  0.73532881  0.62257618     0.21400
H2167       H  0.36025181  0.81565672  0.62523332     0.26700
H2168       H  0.37437611  0.74017035  0.68777564     0.15600
C2169       C  0.33132942  0.78280497  0.27189318    -0.11700
C2170       C  0.34459218  0.78935946  0.24400956     0.14800
C2171       C  0.35662697  0.80202831  0.26009758     0.01700
C2172       C  0.35572412  0.80715782  0.30451243    -0.16100
C2173       C  0.34313136  0.79982316  0.33329656    -0.10900
C2174       C  0.33040619  0.78795941  0.31638868     0.08400
C2175       C  0.34704491  0.78100781  0.20047329     0.09500
S2176       S  0.37434620  0.81096080  0.22687328    -0.25200
H2177       H  0.36558108  0.81620731  0.31728043     0.19700
S2178       S  0.31293902  0.77871246  0.34980090    -0.30900
H2179       H  0.32206924  0.77310904  0.25931013     0.10000
C2180       C  0.35920664  0.76721522  0.19527956     0.03200
C2181       C  0.36188658  0.76001132  0.15316552    -0.13200
C2182       C  0.35257581  0.76618513  0.11572775    -0.08900
C2183       C  0.33987341  0.77979428  0.12179757     0.06700
C2184       C  0.33736754  0.78705299  0.16405245    -0.14000
S2185       S  0.37143108  0.75886978  0.24240595    -0.30900
H2186       H  0.37155683  0.74963557  0.14955601     0.10900
S2187       S  0.32662105  0.78893776  0.07779649    -0.28000
H2188       H  0.32791836  0.79763072  0.16859150     0.08200
H2189       H  0.31153541  0.79317297  0.37886248     0.26600
H2190       H  0.38138737  0.74622486  0.21913954     0.21400
H2191       H  0.31994254  0.77244673  0.06449691     0.26700
H2192       H  0.36615320  0.80890237  0.18536441     0.15600
C2193       C  0.27566343  0.72361799  0.04204728    -0.11700
C2194       C  0.26529581  0.71497884  0.01014741     0.14800
C2195       C  0.27330712  0.70883537  0.97067196     0.01700
C2196       C  0.29120358  0.71221302  0.96306592    -0.16100
C2197       C  0.30144408  0.72136500  0.99436785    -0.10900
C2198       C  0.29365391  0.72653837  0.03504897     0.08400
C2199       C  0.24595624  0.71429360  0.01706756     0.09500
S2200       S  0.26135557  0.69686776  0.92851211    -0.25200
H2201       H  0.29708893  0.70799536  0.93201012     0.19700
S2202       S  0.30595992  0.73652302  0.07977512    -0.30900
H2203       H  0.26963062  0.72830266  0.07249558     0.10000
C2204       C  0.23828636  0.70511869  0.05305823     0.03200
C2205       C  0.22008958  0.70661264  0.06081331    -0.13200
C2206       C  0.20942087  0.71703504  0.03312501    -0.08900
C2207       C  0.21700553  0.72512517  0.99523090     0.06700
C2208       C  0.23515311  0.72394313  0.98818000    -0.14000
S2209       S  0.25167028  0.69169630  0.08937643    -0.30900
H2210       H  0.21430892  0.70033123  0.08969391     0.10900
S2211       S  0.20428719  0.73708584  0.95444409    -0.28000
H2212       H  0.24096627  0.73080397  0.96013711     0.08200
H2213       H  0.32174051  0.72737389  0.07133965     0.26600
H2214       H  0.23772254  0.68462680  0.11458234     0.21400
H2215       H  0.18904067  0.72662076  0.95881562     0.26700
H2216       H  0.24895049  0.68926055  0.95753546     0.15600
C2217       C  0.54111445  0.66627693  0.41782639    -0.11700
C2218       C  0.55061433  0.67673044  0.38758792     0.14800
C2219       C  0.54460000  0.67811443  0.34328029     0.01700
C2220       C  0.52919064  0.66925405  0.33050264    -0.16100
C2221       C  0.51992656  0.65844424  0.36046702    -0.10900
C2222       C  0.52583830  0.65724188  0.40492172     0.08400
C2223       C  0.56688450  0.68564142  0.40338211     0.09500
S2224       S  0.55631195  0.69032227  0.30101049    -0.25200
H2225       H  0.52487464  0.67011937  0.29624407     0.19700
S2226       S  0.51427373  0.64479149  0.44701603    -0.30900
H2227       H  0.54560404  0.66524257  0.45191381     0.10000
C2228       C  0.56784057  0.70410574  0.40923215     0.03200
C2229       C  0.58344708  0.71172928  0.42560066    -0.13200
C2230       C  0.59809278  0.70125809  0.43684977    -0.08900
C2231       C  0.59681611  0.68267773  0.43193267     0.06700
C2232       C  0.58142011  0.67517709  0.41467907    -0.14000
S2233       S  0.54897996  0.71787632  0.39754506    -0.30900
H2234       H  0.58421209  0.72590450  0.42999079     0.10900
S2235       S  0.61372268  0.66763402  0.45022543    -0.28000
H2236       H  0.58056294  0.66094994  0.41113871     0.08200
H2237       H  0.49732573  0.64776601  0.42964974     0.26600
H2238       H  0.55704356  0.73413718  0.40753773     0.21400
H2239       H  0.61676158  0.67659425  0.49045903     0.26700
H2240       H  0.57323462  0.68806627  0.31904990     0.15600
C2241       C  0.43530459  0.70501503  0.40831036    -0.11700
C2242       C  0.41772359  0.70325647  0.42208151     0.14800
C2243       C  0.40965571  0.68644851  0.41969653     0.01700
C2244       C  0.41897930  0.67213233  0.40167434    -0.16100
C2245       C  0.43649441  0.67394079  0.38673334    -0.10900
C2246       C  0.44486128  0.69059763  0.39183355     0.08400
C2247       C  0.40797405  0.71942498  0.43607120     0.09500
S2248       S  0.38747958  0.68241980  0.43880612    -0.25200
H2249       H  0.41230771  0.65953109  0.39857136     0.19700
S2250       S  0.46777756  0.69441532  0.37912886    -0.30900
H2251       H  0.44166921  0.71781298  0.41040657     0.10000
C2252       C  0.41311079  0.72939308  0.47352583     0.03200
C2253       C  0.40436619  0.74529503  0.48336496    -0.13200
C2254       C  0.39039481  0.75146489  0.45687097    -0.08900
C2255       C  0.38523759  0.74134278  0.41945036     0.06700
C2256       C  0.39396193  0.72547826  0.40975427    -0.14000
S2257       S  0.43038415  0.72154058  0.50977783    -0.30900
H2258       H  0.40821612  0.75281997  0.51237145     0.10900
S2259       S  0.36830896  0.74833929  0.38128820    -0.28000
H2260       H  0.39012395  0.71801230  0.38059162     0.08200
H2261       H  0.47352333  0.67815375  0.39658836     0.26600
H2262       H  0.42995405  0.73574218  0.53989347     0.21400
H2263       H  0.37313726  0.76629296  0.38210389     0.26700
H2264       H  0.38751239  0.69550539  0.47196571     0.15600
C2265       C  0.39009653  0.64087485  0.20183964    -0.11700
C2266       C  0.39592071  0.64672515  0.16008346     0.14800
C2267       C  0.41390439  0.64506698  0.14881885     0.01700
C2268       C  0.42575826  0.63851827  0.18039644    -0.16100
C2269       C  0.42025065  0.63426839  0.22371009    -0.10900
C2270       C  0.40205587  0.63491762  0.23396289     0.08400
C2271       C  0.38418901  0.65815743  0.13327686     0.09500
S2272       S  0.42224208  0.65325277  0.09631830    -0.25200
H2273       H  0.43965275  0.63788291  0.17232974     0.19700
S2274       S  0.39349395  0.63055189  0.28873155    -0.30900
H2275       H  0.37634728  0.64243825  0.21077783     0.10000
C2276       C  0.37897640  0.65379667  0.08967673     0.03200
C2277       C  0.37203271  0.66706061  0.06208853    -0.13200
C2278       C  0.37007075  0.68443903  0.07775614    -0.08900
C2279       C  0.37307132  0.68804075  0.12313037     0.06700
C2280       C  0.38028622  0.67495776  0.15021645    -0.14000
S2281       S  0.38212832  0.63169359  0.06861526    -0.30900
H2282       H  0.36943836  0.66423247  0.02743686     0.10900
S2283       S  0.36867746  0.70929425  0.14783664    -0.28000
H2284       H  0.38380909  0.67821394  0.18414614     0.08200
H2285       H  0.40561991  0.64171853  0.31029086     0.26600
H2286       H  0.37494745  0.63474476  0.02621811     0.21400
H2287       H  0.35540266  0.71415543  0.11759353     0.26700
H2288       H  0.44023192  0.65035615  0.10480464     0.15600
C2289       C  0.43904632  0.33312271  0.13607121    -0.11700
C2290       C  0.42114117  0.33408913  0.12500170     0.14800
C2291       C  0.41241273  0.35052465  0.12684074     0.01700
C2292       C  0.42147172  0.36540560  0.14226398    -0.16100
C2293       C  0.43917813  0.36429587  0.15540429    -0.10900
C2294       C  0.44821942  0.34807851  0.15053394     0.08400
C2295       C  0.41168927  0.31757589  0.11421176     0.09500
S2296       S  0.38961392  0.35321476  0.11139725    -0.25200
H2297       H  0.41444039  0.37779053  0.14561016     0.19700
S2298       S  0.47143936  0.34567651  0.16171026    -0.30900
H2299       H  0.44585664  0.32057261  0.13387740     0.10000
C2300       C  0.41423701  0.30889240  0.07339063     0.03200
C2301       C  0.40485005  0.29334149  0.06450546    -0.13200
C2302       C  0.39291361  0.28627762  0.09561690    -0.08900
C2303       C  0.39084974  0.29478599  0.13718014     0.06700
C2304       C  0.40010301  0.31041314  0.14575403    -0.14000
S2305       S  0.42878541  0.31809278  0.03181711    -0.30900
H2306       H  0.40636883  0.28697930  0.03250956     0.10900
S2307       S  0.37712252  0.28617130  0.18112349    -0.28000
H2308       H  0.39841417  0.31697887  0.17748137     0.08200
H2309       H  0.47596243  0.36283457  0.14771715     0.26600
H2310       H  0.42629473  0.30483658  0.99966748     0.21400
H2311       H  0.38085955  0.26830916  0.17222625     0.26700
H2312       H  0.38930807  0.33966329  0.07946938     0.15600
C2313       C  0.37624798  0.36169956  0.38936642    -0.11700
C2314       C  0.38329357  0.37750496  0.40596432     0.14800
C2315       C  0.38036853  0.38211680  0.45077362     0.01700
C2316       C  0.37225151  0.36994184  0.47913550    -0.16100
C2317       C  0.36715294  0.35319500  0.46367037    -0.10900
C2318       C  0.36813774  0.34951504  0.41772798     0.08400
C2319       C  0.39707112  0.38629999  0.37931607     0.09500
S2320       S  0.38872511  0.40227251  0.47482724    -0.25200
H2321       H  0.37148599  0.37293324  0.51430943     0.19700
S2322       S  0.36034457  0.32908510  0.39391538    -0.30900
H2323       H  0.37834232  0.35820581  0.35483467     0.10000
C2324       C  0.41483573  0.38170034  0.38563156     0.03200
C2325       C  0.42762095  0.38846037  0.35690475    -0.13200
C2326       C  0.42317013  0.39977851  0.32142109    -0.08900
C2327       C  0.40539135  0.40544484  0.31755420     0.06700
C2328       C  0.39250740  0.39830180  0.34584427    -0.14000
S2329       S  0.42113939  0.36617832  0.42851672    -0.30900
H2330       H  0.44108352  0.38408777  0.36105128     0.10900
S2331       S  0.39817892  0.42172957  0.27791556    -0.28000
H2332       H  0.37883685  0.40207783  0.34172870     0.08200
H2333       H  0.34781811  0.32552999  0.42725351     0.26600
H2334       H  0.43947998  0.36772097  0.42295563     0.21400
H2335       H  0.41277528  0.43288922  0.28487077     0.26700
H2336       H  0.38929246  0.41194889  0.43497955     0.15600
C2337       C  0.46139035  0.50540740  0.22279918    -0.11700
C2338       C  0.45238276  0.50934624  0.26221937     0.14800
C2339       C  0.44434720  0.49554426  0.28654008     0.01700
C2340       C  0.44623368  0.47804361  0.27199134    -0.16100
C2341       C  0.45603139  0.47403703  0.23370011    -0.10900
C2342       C  0.46320098  0.48798399  0.20813986     0.08400
C2343       C  0.45355781  0.52764159  0.27928763     0.09500
S2344       S  0.43256426  0.49927604  0.33774120    -0.25200
H2345       H  0.44068768  0.46743028  0.29176229     0.19700
S2346       S  0.47496409  0.48441404  0.15677466    -0.30900
H2347       H  0.46751060  0.51597916  0.20397559     0.10000
C2348       C  0.46747811  0.53263796  0.30753014     0.03200
C2349       C  0.46944814  0.55041972  0.31947414    -0.13200
C2350       C  0.45776465  0.56338996  0.30384453    -0.08900
C2351       C  0.44370920  0.55830806  0.27573590     0.06700
C2352       C  0.44172523  0.54048561  0.26390803    -0.14000
S2353       S  0.48305112  0.51639138  0.32730026    -0.30900
H2354       H  0.48021181  0.55429705  0.34098199     0.10900
S2355       S  0.42860956  0.57399360  0.25168168    -0.28000
H2356       H  0.43121462  0.53666250  0.24151985     0.08200
H2357       H  0.46523300  0.46945079  0.14379428     0.26600
H2358       H  0.49351241  0.52804141  0.35240890     0.21400
H2359       H  0.44124801  0.58735696  0.24514458     0.26700
H2360       H  0.42739439  0.51669629  0.32838036     0.15600
C2361       C  0.61159701  0.72959563  0.89308571    -0.11700
C2362       C  0.60127399  0.72050825  0.92434657     0.14800
C2363       C  0.59956302  0.72735745  0.96774903     0.01700
C2364       C  0.60816306  0.74310338  0.97890410    -0.16100
C2365       C  0.61876367  0.75207823  0.94794345    -0.10900
C2366       C  0.62016252  0.74539251  0.90420052     0.08400
C2367       C  0.59187586  0.70434180  0.91010273     0.09500
S2368       S  0.58664954  0.71665957  0.01038585    -0.25200
H2369       H  0.60700063  0.74810277  0.01252699     0.19700
S2370       S  0.63191780  0.75680595  0.86062042    -0.30900
H2371       H  0.61264521  0.72454044  0.85948378     0.10000
C2372       C  0.57388733  0.70473452  0.89881881     0.03200
C2373       C  0.56555650  0.68917349  0.88464042    -0.13200
C2374       C  0.57488818  0.67318251  0.88095378    -0.08900
C2375       C  0.59305748  0.67297735  0.89193822     0.06700
C2376       C  0.60123540  0.68845994  0.90689468    -0.14000
S2377       S  0.56172248  0.72521594  0.90096387    -0.30900
H2378       H  0.55175424  0.68952762  0.87562485     0.10900
S2379       S  0.60692528  0.65389504  0.88436753    -0.28000
H2380       H  0.61514601  0.68825914  0.91500967     0.08200
H2381       H  0.62801765  0.77391929  0.87597543     0.26600
H2382       H  0.54519857  0.71808046  0.88969194     0.21400
H2383       H  0.60045313  0.65005968  0.84162530     0.26700
H2384       H  0.58866460  0.69931096  0.99462028     0.15600
C2385       C  0.59930655  0.64323119  0.65111140    -0.11700
C2386       C  0.61654603  0.64558826  0.66689171     0.14800
C2387       C  0.62073621  0.64012669  0.71044566     0.01700
C2388       C  0.60731908  0.63406560  0.73852300    -0.16100
C2389       C  0.58972938  0.63325655  0.72400038    -0.10900
C2390       C  0.58588797  0.63694018  0.67893828     0.08400
C2391       C  0.62856165  0.65680396  0.64016679     0.09500
S2392       S  0.64273682  0.64154117  0.73276497    -0.25200
H2393       H  0.61051220  0.63100826  0.77276542     0.19700
S2394       S  0.56391972  0.63406484  0.65665367    -0.30900
H2395       H  0.59614649  0.64737724  0.61760560     0.10000
C2396       C  0.63320818  0.65242989  0.59613217     0.03200
C2397       C  0.64039416  0.66549371  0.56836429    -0.13200
C2398       C  0.64281828  0.68281069  0.58390602    -0.08900
C2399       C  0.64022758  0.68648324  0.62944230     0.06700
C2400       C  0.63293604  0.67353639  0.65691983    -0.14000
S2401       S  0.62898826  0.63056981  0.57461770    -0.30900
H2402       H  0.64264202  0.66262252  0.53356653     0.10900
S2403       S  0.64504359  0.70775123  0.65371940    -0.28000
H2404       H  0.62964132  0.67690146  0.69094011     0.08200
H2405       H  0.56779575  0.63902790  0.61265967     0.26600
H2406       H  0.63719481  0.63311936  0.53316294     0.21400
H2407       H  0.65804599  0.71249160  0.62253376     0.26700
H2408       H  0.65144881  0.64067008  0.69155199     0.15600
C2409       C  0.46805275  0.68020900  0.84937979    -0.11700
C2410       C  0.45886225  0.67401864  0.88667011     0.14800
C2411       C  0.46438765  0.65831090  0.90772880     0.01700
C2412       C  0.47933705  0.64952670  0.89197714    -0.16100
C2413       C  0.48866359  0.65571997  0.85466824    -0.10900
C2414       C  0.48263938  0.67110394  0.83266365     0.08400
C2415       C  0.44342219  0.68415231  0.90216231     0.09500
S2416       S  0.45291570  0.64870979  0.95447166    -0.25200
H2417       H  0.48364756  0.63764741  0.90888606     0.19700
S2418       S  0.49220552  0.67924589  0.78175069    -0.30900
H2419       H  0.46358830  0.69207104  0.83264113     0.10000
C2420       C  0.44397273  0.69425545  0.94139568     0.03200
C2421       C  0.42893526  0.70359449  0.95468922    -0.13200
C2422       C  0.41332542  0.70310677  0.92948416    -0.08900
C2423       C  0.41308132  0.69332923  0.88937802     0.06700
C2424       C  0.42805700  0.68390390  0.87640937    -0.14000
S2425       S  0.46383108  0.69531477  0.97439791    -0.30900
H2426       H  0.42921056  0.71096005  0.98551641     0.10900
S2427       S  0.39440943  0.69277890  0.85245664    -0.28000
H2428       H  0.42778375  0.67634995  0.84581487     0.08200
H2429       H  0.49431247  0.66240538  0.76264537     0.26600
H2430       H  0.45720140  0.70651150  0.00773625     0.21400
H2431       H  0.38989501  0.71054049  0.85966198     0.26700
H2432       H  0.43607429  0.65499730  0.94331746     0.15600
C2433       C  0.51646724  0.59803109  0.03659589    -0.11700
C2434       C  0.52680276  0.60832940  0.06498568     0.14800
C2435       C  0.54234090  0.61628869  0.04881864     0.01700
C2436       C  0.54632501  0.61510759  0.00353876    -0.16100
C2437       C  0.53521358  0.60592046  0.97413045    -0.10900
C2438       C  0.52058777  0.59652715  0.99161910     0.08400
C2439       C  0.51966488  0.61223177  0.10937070     0.09500
S2440       S  0.55695574  0.62898021  0.08368471    -0.25200
H2441       H  0.55772861  0.62214319  0.99095170     0.19700
S2442       S  0.50655118  0.58247904  0.95871604    -0.30900
H2443       H  0.50471497  0.59161868  0.04931996     0.10000
C2444       C  0.51108951  0.62835752  0.11774041     0.03200
C2445       C  0.50308056  0.63113021  0.15901613    -0.13200
C2446       C  0.50297982  0.61790351  0.19187116    -0.08900
C2447       C  0.51122596  0.60146016  0.18249035     0.06700
C2448       C  0.51969783  0.59897922  0.14172703    -0.14000
S2449       S  0.50966297  0.64512179  0.07506712    -0.30900
H2450       H  0.49677686  0.64368094  0.16553965     0.10900
S2451       S  0.51052344  0.58264369  0.21922966    -0.28000
H2452       H  0.52582574  0.58637594  0.13445545     0.08200
H2453       H  0.52052087  0.57611025  0.93267190     0.26600
H2454       H  0.49945013  0.65723586  0.09938214     0.21400
H2455       H  0.49230619  0.58412429  0.22722630     0.26700
H2456       H  0.55242848  0.62065598  0.12387428     0.15600
C2457       C  0.46955105  0.60986690  0.55151345    -0.11700
C2458       C  0.48738333  0.60708061  0.56144040     0.14800
C2459       C  0.49915787  0.60251717  0.52725255     0.01700
C2460       C  0.49305102  0.60152843  0.48377422    -0.16100
C2461       C  0.47545150  0.60563770  0.47267156    -0.10900
C2462       C  0.46339025  0.60901624  0.50767597     0.08400
C2463       C  0.49366360  0.60989729  0.60717067     0.09500
S2464       S  0.52237705  0.59878591  0.53636472    -0.25200
H2465       H  0.50260519  0.59848807  0.45814071     0.19700
S2466       S  0.44016159  0.61244350  0.49925932    -0.30900
H2467       H  0.46044111  0.61302708  0.57810342     0.10000
C2468       C  0.49552235  0.62711163  0.62415699     0.03200
C2469       C  0.50293552  0.62949607  0.66621193    -0.13200
C2470       C  0.50895119  0.61505729  0.69134481    -0.08900
C2471       C  0.50740640  0.59779261  0.67362549     0.06700
C2472       C  0.49943726  0.59539538  0.63217154    -0.14000
S2473       S  0.48935227  0.64612173  0.59127622    -0.30900
H2474       H  0.50417425  0.64273593  0.67947165     0.10900
S2475       S  0.51642860  0.57848296  0.70033569    -0.28000
H2476       H  0.49843671  0.58221066  0.61833656     0.08200
H2477       H  0.43839468  0.59795679  0.47027243     0.26600
H2478       H  0.49352932  0.65904726  0.62316207     0.21400
H2479       H  0.53199511  0.58692113  0.71438578     0.26700
H2480       H  0.52450036  0.61179124  0.56927552     0.15600
C2481       C  0.45270417  0.38724809  0.65208315    -0.11700
C2482       C  0.44922854  0.37073525  0.67143005     0.14800
C2483       C  0.46126936  0.36363190  0.70229165     0.01700
C2484       C  0.47640210  0.37320907  0.71318757    -0.16100
C2485       C  0.48021312  0.38955711  0.69303271    -0.10900
C2486       C  0.46810781  0.39661930  0.66202716     0.08400
C2487       C  0.43395878  0.36053955  0.65502214     0.09500
S2488       S  0.45840844  0.34231191  0.72827564    -0.25200
H2489       H  0.48543694  0.36766496  0.73732292     0.19700
S2490       S  0.47197675  0.41682056  0.63180665    -0.30900
H2491       H  0.44362715  0.39255729  0.62770420     0.10000
C2492       C  0.41874432  0.35760273  0.68087649     0.03200
C2493       C  0.40479069  0.34763996  0.66305063    -0.13200
C2494       C  0.40568552  0.34081300  0.61960932    -0.08900
C2495       C  0.42085410  0.34442020  0.59348426     0.06700
C2496       C  0.43484130  0.35386491  0.61178981    -0.14000
S2497       S  0.41693870  0.36693344  0.73590172    -0.30900
H2498       H  0.39312454  0.34523109  0.68288574     0.10900
S2499       S  0.42287874  0.33858920  0.53557026    -0.28000
H2500       H  0.44643678  0.35642785  0.59170062     0.08200
H2501       H  0.48977966  0.41303331  0.62289064     0.26600
H2502       H  0.40031358  0.35975552  0.74610202     0.21400
H2503       H  0.40585414  0.34446397  0.52437624     0.26700
H2504       H  0.44914068  0.33426390  0.69331653     0.15600
C2505       C  0.52398274  0.43629316  0.40063722    -0.11700
C2506       C  0.51729019  0.42683617  0.43689977     0.14800
C2507       C  0.50405654  0.41402808  0.43023589     0.01700
C2508       C  0.49769898  0.41102956  0.38746311    -0.16100
C2509       C  0.50408027  0.42067328  0.35092880    -0.10900
C2510       C  0.51773534  0.43317395  0.35762072     0.08400
C2511       C  0.52437111  0.43033823  0.48146218     0.09500
S2512       S  0.49487621  0.40090125  0.47473736    -0.25200
H2513       H  0.48733133  0.40133425  0.38292120     0.19700
S2514       S  0.52837456  0.44490574  0.31286683    -0.30900
H2515       H  0.53437939  0.44590430  0.40582775     0.10000
C2516       C  0.53765990  0.41966643  0.49985221     0.03200
C2517       C  0.54191974  0.42156676  0.54486527    -0.13200
C2518       C  0.53287414  0.43371921  0.57173158    -0.08900
C2519       C  0.52043309  0.44525548  0.55220736     0.06700
C2520       C  0.51639448  0.44347689  0.50719963    -0.14000
S2521       S  0.54834444  0.40292582  0.46667312    -0.30900
H2522       H  0.55141606  0.41271934  0.55986785     0.10900
S2523       S  0.50880826  0.46208416  0.58288086    -0.28000
H2524       H  0.50631877  0.45179466  0.49261267     0.08200
H2525       H  0.52841465  0.43042817  0.28355897     0.26600
H2526       H  0.56044116  0.39742803  0.49925601     0.21400
H2527       H  0.52167219  0.46431292  0.61585974     0.26700
H2528       H  0.49575323  0.41395874  0.50778111     0.15600
C2529       C  0.49386000  0.42351328  0.00564466    -0.11700
C2530       C  0.48338210  0.43493062  0.98052404     0.14800
C2531       C  0.46925500  0.44392874  0.00098870     0.01700
C2532       C  0.46613838  0.44141259  0.04655752    -0.16100
C2533       C  0.47684846  0.43009147  0.07189378    -0.10900
C2534       C  0.49058712  0.42073061  0.05058316     0.08400
C2535       C  0.48715438  0.43566548  0.93255044     0.09500
S2536       S  0.45467979  0.45850532  0.97107664    -0.25200
H2537       H  0.45549915  0.44855947  0.06246827     0.19700
S2538       S  0.50380284  0.40420098  0.07786744    -0.30900
H2539       H  0.50439556  0.41623228  0.98960329     0.10000
C2540       C  0.50037714  0.44688152  0.91561198     0.03200
C2541       C  0.50690685  0.44398350  0.87259353    -0.13200
C2542       C  0.50061381  0.42987630  0.84682150    -0.08900
C2543       C  0.48640021  0.41956607  0.86271406     0.06700
C2544       C  0.47993349  0.42247904  0.90551477    -0.14000
S2545       S  0.50966583  0.46408498  0.94994958    -0.30900
H2546       H  0.51765283  0.45199451  0.86007245     0.10900
S2547       S  0.47622588  0.40227998  0.83036097    -0.28000
H2548       H  0.46975657  0.41387238  0.91865154     0.08200
H2549       H  0.48983836  0.39728343  0.10334070     0.26600
H2550       H  0.52121985  0.47098314  0.91771715     0.21400
H2551       H  0.47852800  0.41076703  0.78918431     0.26700
H2552       H  0.46591042  0.46207270  0.93507242     0.15600
C2553       C  0.54715081  0.53041010  0.81293716    -0.11700
C2554       C  0.56171805  0.52670619  0.78599300     0.14800
C2555       C  0.57308140  0.54051587  0.77296693     0.01700
C2556       C  0.56937806  0.55781949  0.78640925    -0.16100
C2557       C  0.55444345  0.56167274  0.81230674    -0.10900
C2558       C  0.54333845  0.54767493  0.82626672     0.08400
C2559       C  0.56311124  0.50865532  0.76796871     0.09500
S2560       S  0.59216549  0.53696884  0.73836998    -0.25200
H2561       H  0.57796822  0.56842201  0.77552376     0.19700
S2562       S  0.52435293  0.55139772  0.86134467    -0.30900
H2563       H  0.53843482  0.51970013  0.82235414     0.10000
C2564       C  0.56647875  0.49405386  0.79576771     0.03200
C2565       C  0.56389903  0.47693586  0.77924669    -0.13200
C2566       C  0.55785307  0.47429985  0.73573120    -0.08900
C2567       C  0.55589477  0.48888550  0.70699291     0.06700
C2568       C  0.55840698  0.50592209  0.72350180    -0.14000
S2569       S  0.57326524  0.49728514  0.85270364    -0.30900
H2570       H  0.56553159  0.46564382  0.80097279     0.10900
S2571       S  0.54980745  0.48663792  0.64938181    -0.28000
H2572       H  0.55593450  0.51716570  0.70208205     0.08200
H2573       H  0.51897715  0.53367848  0.86537659     0.26600
H2574       H  0.57510488  0.47929666  0.86350589     0.21400
H2575       H  0.55679157  0.46958547  0.64369400     0.26700
H2576       H  0.59494185  0.51926638  0.75062103     0.15600
C2577       C  0.61262712  0.22412458  0.13491915    -0.11700
C2578       C  0.59873065  0.21898482  0.10700799     0.14800
C2579       C  0.59415504  0.22987452  0.07070526     0.01700
C2580       C  0.60340765  0.24562534  0.06343673    -0.16100
C2581       C  0.61766525  0.25054453  0.09055472    -0.10900
C2582       C  0.62231667  0.23959222  0.12681591     0.08400
C2583       C  0.58877259  0.20268682  0.11832651     0.09500
S2584       S  0.57707817  0.22414979  0.03159929    -0.25200
H2585       H  0.59989247  0.25375923  0.03515303     0.19700
S2586       S  0.64018964  0.24532148  0.16383990    -0.30900
H2587       H  0.61586270  0.21589532  0.16319556     0.10000
C2588       C  0.59700789  0.18598110  0.11939063     0.03200
C2589       C  0.58759910  0.17126508  0.13509163    -0.13200
C2590       C  0.57006128  0.17285691  0.14952256    -0.08900
C2591       C  0.56148992  0.18936948  0.14524036     0.06700
C2592       C  0.57099655  0.20410497  0.13054643    -0.14000
S2593       S  0.61954460  0.18340301  0.10108395    -0.30900
H2594       H  0.59417970  0.15863643  0.13802622     0.10900
S2595       S  0.53843016  0.19247352  0.15745990    -0.28000
H2596       H  0.56453327  0.21685153  0.12908998     0.08200
H2597       H  0.63792218  0.23131396  0.19404251     0.26600
H2598       H  0.62084292  0.16515190  0.10924094     0.21400
H2599       H  0.53334069  0.17541181  0.14407676     0.26700
H2600       H  0.57918776  0.20575072  0.03517538     0.15600
C2601       C  0.62401453  0.37980400  0.94424938    -0.11700
C2602       C  0.62186259  0.37421477  0.90028094     0.14800
C2603       C  0.62994374  0.35841964  0.88609907     0.01700
C2604       C  0.63787276  0.34736875  0.91747675    -0.16100
C2605       C  0.63834183  0.35199366  0.96267462    -0.10900
C2606       C  0.63238670  0.36901478  0.97549167     0.08400
C2607       C  0.60780069  0.38252483  0.87368466     0.09500
S2608       S  0.62874218  0.35078652  0.82940642    -0.25200
H2609       H  0.64269560  0.33455825  0.90697318     0.19700
S2610       S  0.63265239  0.37673556  0.03209029    -0.30900
H2611       H  0.61787207  0.39198537  0.95511958     0.10000
C2612       C  0.59101543  0.37460215  0.87179412     0.03200
C2613       C  0.57791843  0.38221120  0.84548488    -0.13200
C2614       C  0.58115263  0.39764071  0.82086946    -0.08900
C2615       C  0.59774566  0.40608784  0.82467973     0.06700
C2616       C  0.61093530  0.39838513  0.85093933    -0.14000
S2617       S  0.58629564  0.35460808  0.90259624    -0.30900
H2618       H  0.56526959  0.37567721  0.84271522     0.10900
S2619       S  0.60274478  0.42679344  0.79783745    -0.28000
H2620       H  0.62371965  0.40469287  0.85345122     0.08200
H2621       H  0.65096680  0.37445401  0.03650277     0.26600
H2622       H  0.56877562  0.35250755  0.88832120     0.21400
H2623       H  0.58554889  0.43359674  0.80127021     0.26700
H2624       H  0.62676019  0.36760132  0.81019735     0.15600
C2625       C  0.55295394  0.37168912  0.20078461    -0.11700
C2626       C  0.55280337  0.36331704  0.15922350     0.14800
C2627       C  0.53722466  0.36341295  0.13352840     0.01700
C2628       C  0.52215642  0.37172586  0.15018175    -0.16100
C2629       C  0.52259180  0.38070835  0.19086918    -0.10900
C2630       C  0.53806439  0.38043049  0.21676025     0.08400
C2631       C  0.56894774  0.35413509  0.14454275     0.09500
S2632       S  0.53591944  0.35381378  0.07876072    -0.25200
H2633       H  0.51020246  0.37172786  0.13055247     0.19700
S2634       S  0.53946853  0.39060825  0.27081797    -0.30900
H2635       H  0.56476863  0.37133554  0.22098774     0.10000
C2636       C  0.58463505  0.36352557  0.13602407     0.03200
C2637       C  0.59978302  0.35425571  0.12347742    -0.13200
C2638       C  0.59946737  0.33584162  0.11815237    -0.08900
C2639       C  0.58373432  0.32644069  0.12699234     0.06700
C2640       C  0.56868468  0.33569626  0.14018889    -0.14000
S2641       S  0.58512408  0.38738142  0.13860754    -0.30900
H2642       H  0.61175643  0.36144757  0.11591623     0.10900
S2643       S  0.58197183  0.30272332  0.12272661    -0.28000
H2644       H  0.55666050  0.32848120  0.14727557     0.08200
H2645       H  0.52197320  0.38694828  0.28309021     0.26600
H2646       H  0.60276208  0.38952780  0.12522735     0.21400
H2647       H  0.59966955  0.29912549  0.13264233     0.26700
H2648       H  0.55360958  0.35690784  0.06717223     0.15600
C2649       C  0.76773718  0.31068830  0.97615954    -0.11700
C2650       C  0.76454623  0.32061741  0.01465315     0.14800
C2651       C  0.77893905  0.32772262  0.03848456     0.01700
C2652       C  0.79614721  0.32415277  0.02427141    -0.16100
C2653       C  0.79929953  0.31373810  0.98653438    -0.10900
C2654       C  0.78489120  0.30742756  0.96152592     0.08400
C2655       C  0.74621840  0.32160029  0.03126761     0.09500
S2656       S  0.77621552  0.34110468  0.08758106    -0.25200
H2657       H  0.80716706  0.32920428  0.04334937     0.19700
S2658       S  0.78750485  0.29542696  0.91034167    -0.30900
H2659       H  0.75674947  0.30522270  0.95769124     0.10000
C2660       C  0.73278280  0.33008509  0.00694526     0.03200
C2661       C  0.71522553  0.32856240  0.02119854    -0.13200
C2662       C  0.71090108  0.31863090  0.05909789    -0.08900
C2663       C  0.72453213  0.31110733  0.08483403     0.06700
C2664       C  0.74196838  0.31249577  0.07039274    -0.14000
S2665       S  0.73797107  0.34256205  0.95743384    -0.30900
H2666       H  0.70476062  0.33440525  0.00168061     0.10900
S2667       S  0.72052723  0.29955316  0.13632925    -0.28000
H2668       H  0.75229818  0.30609228  0.08931248     0.08200
H2669       H  0.80276184  0.30454025  0.89679641     0.26600
H2670       H  0.72065894  0.34798747  0.94790735     0.21400
H2671       H  0.70566552  0.30953169  0.14857059     0.26700
H2672       H  0.75962290  0.34794513  0.07601975     0.15600
C2673       C  0.93874571  0.20135748  0.89507715    -0.11700
C2674       C  0.92049504  0.20079546  0.90234586     0.14800
C2675       C  0.91122943  0.18493603  0.89416812     0.01700
C2676       C  0.92029805  0.17022286  0.87786433    -0.16100
C2677       C  0.93850445  0.17086608  0.86965885    -0.10900
C2678       C  0.94787392  0.18656824  0.87935745     0.08400
C2679       C  0.91139967  0.21716400  0.91646007     0.09500
S2680       S  0.88781311  0.18271025  0.90298296    -0.25200
H2681       H  0.91296768  0.15829250  0.87035216     0.19700
S2682       S  0.97141931  0.18864726  0.87305330    -0.30900
H2683       H  0.94591954  0.21348148  0.90149342     0.10000
C2684       C  0.91439137  0.22473935  0.95860275     0.03200
C2685       C  0.90538640  0.24019974  0.97055411    -0.13200
C2686       C  0.89329063  0.24809530  0.94144210    -0.08900
C2687       C  0.89059027  0.24067767  0.89889713     0.06700
C2688       C  0.89963447  0.22530656  0.88693704    -0.14000
S2689       S  0.92889498  0.21419385  0.99809856    -0.30900
H2690       H  0.90724484  0.24580665  0.00332552     0.10900
S2691       S  0.87607160  0.25036653  0.85817244    -0.28000
H2692       H  0.89752891  0.21964039  0.85429044     0.08200
H2693       H  0.97528160  0.17077708  0.88048881     0.26600
H2694       H  0.92743348  0.22703422  0.03168334     0.21400
H2695       H  0.87899306  0.26797843  0.87116811     0.26700
H2696       H  0.88673937  0.19477227  0.93839920     0.06000
C2697       C  0.87590207  0.35589067  0.15241873    -0.11700
C2698       C  0.87890688  0.37322673  0.13763748     0.14800
C2699       C  0.87435386  0.37776970  0.09360593     0.01700
C2700       C  0.86895533  0.36455145  0.06410392    -0.16100
C2701       C  0.86765869  0.34683254  0.07776174    -0.10900
C2702       C  0.86992186  0.34278348  0.12335523     0.08400
C2703       C  0.89007846  0.38488920  0.16552461     0.09500
S2704       S  0.87628411  0.39998077  0.07242665    -0.25200
H2705       H  0.86685571  0.36801423  0.02956538     0.19700
S2706       S  0.86593460  0.32111885  0.14636900    -0.30900
H2707       H  0.87915408  0.35228391  0.18629547     0.10000
C2708       C  0.88558455  0.38936109  0.20961377     0.03200
C2709       C  0.89838743  0.39699719  0.23737302    -0.13200
C2710       C  0.91556733  0.40010566  0.22179014    -0.08900
C2711       C  0.91946285  0.39722111  0.17645323     0.06700
C2712       C  0.90674133  0.38951981  0.14900722    -0.14000
S2713       S  0.86381721  0.38471926  0.23093125    -0.30900
H2714       H  0.89540738  0.39931291  0.27208211     0.10900
S2715       S  0.94083998  0.40277267  0.15361998    -0.28000
H2716       H  0.91010268  0.38616031  0.11506910     0.08200
H2717       H  0.85230193  0.31680556  0.11657221     0.26600
H2718       H  0.86646051  0.39195489  0.27346649     0.21400
H2719       H  0.93757572  0.39701636  0.10994672     0.26700
H2720       H  0.87465722  0.40839228  0.11390158     0.15600
C2721       C  0.92742789  0.34694338  0.86353440    -0.11700
C2722       C  0.93959677  0.35340940  0.89466788     0.14800
C2723       C  0.93706319  0.34981897  0.94019546     0.01700
C2724       C  0.92239012  0.34000745  0.95359658    -0.16100
C2725       C  0.91014898  0.33346820  0.92260942    -0.10900
C2726       C  0.91283621  0.33689150  0.87691241     0.08400
C2727       C  0.95499360  0.36353222  0.87860491     0.09500
S2728       S  0.95186157  0.35757831  0.98290906    -0.25200
H2729       H  0.92039269  0.33764757  0.98877939     0.19700
S2730       S  0.89859264  0.32834315  0.83406242    -0.30900
H2731       H  0.92948383  0.34953873  0.82848667     0.10000
C2732       C  0.96963476  0.35486244  0.86017442     0.03200
C2733       C  0.98413810  0.36480017  0.84591735    -0.13200
C2734       C  0.98434421  0.38339134  0.84898896    -0.08900
C2735       C  0.96933343  0.39203223  0.86688270     0.06700
C2736       C  0.95501091  0.38198726  0.88206130    -0.14000
S2737       S  0.97008571  0.33104319  0.85619044    -0.30900
H2738       H  0.99550707  0.35792455  0.83283057     0.10900
S2739       S  0.96714960  0.41569926  0.86991094    -0.28000
H2740       H  0.94362324  0.38861569  0.89598720     0.08200
H2741       H  0.89485644  0.31231669  0.85583818     0.26600
H2742       H  0.98589554  0.32978290  0.83197019     0.21400
H2743       H  0.97310246  0.41851763  0.82619501     0.26700
H2744       H  0.96728551  0.35729996  0.95707700     0.15600
C2745       C  0.66953539  0.27347660  0.36796132    -0.11700
C2746       C  0.65896432  0.28768741  0.35454982     0.14800
C2747       C  0.64618741  0.29449425  0.38398152     0.01700
C2748       C  0.64352961  0.28628315  0.42499070    -0.16100
C2749       C  0.65374890  0.27174926  0.43785953    -0.10900
C2750       C  0.66717035  0.26545858  0.40939093     0.08400
C2751       C  0.65967565  0.29320401  0.30756616     0.09500
S2752       S  0.63275053  0.31342018  0.37077066    -0.25200
H2753       H  0.63341205  0.29127536  0.44711597     0.19700
S2754       S  0.68119814  0.24683817  0.42212011    -0.30900
H2755       H  0.67919855  0.26810279  0.34513298     0.10000
C2756       C  0.67467780  0.30134156  0.28888014     0.03200
C2757       C  0.67502321  0.30490826  0.24307598    -0.13200
C2758       C  0.66066353  0.30037122  0.21610149    -0.08900
C2759       C  0.64543229  0.29286911  0.23530424     0.06700
C2760       C  0.64518644  0.28917799  0.28062091    -0.14000
S2761       S  0.69327186  0.30713561  0.32332386    -0.30900
H2762       H  0.68660382  0.31076332  0.22801473     0.10900
S2763       S  0.62588279  0.28769657  0.20376191    -0.28000
H2764       H  0.63364609  0.28294866  0.29502320     0.08200
H2765       H  0.67187638  0.23991599  0.45842455     0.26600
H2766       H  0.70374495  0.31431336  0.28919401     0.21400
H2767       H  0.62797133  0.30122580  0.17221714     0.26700
H2768       H  0.64496353  0.32139296  0.34183948     0.15600
C2769       C  0.65246533  0.24747005  0.88301154    -0.11700
C2770       C  0.66401727  0.25538060  0.85259376     0.14800
C2771       C  0.67483626  0.26958571  0.86641459     0.01700
C2772       C  0.67354599  0.27575875  0.91012385    -0.16100
C2773       C  0.66119758  0.26848954  0.93951526    -0.10900
C2774       C  0.65093960  0.25386737  0.92625050     0.08400
C2775       C  0.66276042  0.24987157  0.80576054     0.09500
S2776       S  0.68952469  0.28124620  0.82938893    -0.25200
H2777       H  0.68125931  0.28713082  0.92023229     0.19700
S2778       S  0.63514814  0.24333067  0.96249363    -0.30900
H2779       H  0.64412549  0.23661729  0.87244946     0.10000
C2780       C  0.67642694  0.24075951  0.78387302     0.03200
C2781       C  0.67464787  0.23682451  0.73851409    -0.13200
C2782       C  0.65942617  0.24177678  0.71525167    -0.08900
C2783       C  0.64537554  0.24996057  0.73799266     0.06700
C2784       C  0.64726720  0.25406824  0.78281906    -0.14000
S2785       S  0.69603975  0.23427339  0.81357660    -0.30900
H2786       H  0.68529715  0.23043018  0.72078089     0.10900
S2787       S  0.62471159  0.25546660  0.71167234    -0.28000
H2788       H  0.63662080  0.26075301  0.79996990     0.08200
H2789       H  0.64454531  0.24654026  0.00191960     0.26600
H2790       H  0.70480952  0.22666287  0.77711378     0.21400
H2791       H  0.62498230  0.24165162  0.68041760     0.26700
H2792       H  0.67945207  0.27902790  0.79063046     0.15600
C2793       C  0.61807509  0.14876934  0.33038211    -0.11700
C2794       C  0.61295320  0.15306370  0.37382408     0.14800
C2795       C  0.59572384  0.14881829  0.38819081     0.01700
C2796       C  0.58394667  0.14094567  0.35859106    -0.16100
C2797       C  0.58854308  0.13793743  0.31399397    -0.10900
C2798       C  0.60614534  0.14121014  0.30039850     0.08400
C2799       C  0.62459152  0.16445880  0.40090895     0.09500
S2800       S  0.58723907  0.15477997  0.44221365    -0.25200
H2801       H  0.57056984  0.13845408  0.36963955     0.19700
S2802       S  0.61370529  0.13804931  0.24423398    -0.30900
H2803       H  0.63121425  0.15218106  0.31909131     0.10000
C2804       C  0.63094026  0.15922517  0.44286511     0.03200
C2805       C  0.63737330  0.17212487  0.47222886    -0.13200
C2806       C  0.63787848  0.19004925  0.45980520    -0.08900
C2807       C  0.63413725  0.19460566  0.41513870     0.06700
C2808       C  0.62723140  0.18186030  0.38656252    -0.14000
S2809       S  0.62988171  0.13635193  0.45970517    -0.30900
H2810       H  0.64075195  0.16840013  0.50589031     0.10900
S2811       S  0.63732104  0.21649810  0.39284164    -0.28000
H2812       H  0.62299201  0.18577187  0.35360164     0.08200
H2813       H  0.60929445  0.11998607  0.24395943     0.26600
H2814       H  0.63758743  0.13865903  0.50181058     0.21400
H2815       H  0.65168869  0.22038083  0.42053316     0.26700
H2816       H  0.59531445  0.17149345  0.44387601     0.15600
C2817       C  0.56900979  0.20408070  0.65831943    -0.11700
C2818       C  0.56969057  0.18581996  0.66577781     0.14800
C2819       C  0.58541553  0.17651149  0.65721296     0.01700
C2820       C  0.59976144  0.18542726  0.63861856    -0.16100
C2821       C  0.59876648  0.20350674  0.62868749    -0.10900
C2822       C  0.58346008  0.21308216  0.64014058     0.08400
C2823       C  0.55325664  0.17655406  0.67765174     0.09500
S2824       S  0.58772084  0.15317429  0.66783207    -0.25200
H2825       H  0.61157441  0.17807265  0.63044758     0.19700
S2826       S  0.58235093  0.23674796  0.63238113    -0.30900
H2827       H  0.55693179  0.21112806  0.66553127     0.10000
C2828       C  0.54594321  0.17764640  0.72052768     0.03200
C2829       C  0.53023464  0.16860590  0.72979057    -0.13200
C2830       C  0.52168730  0.15855950  0.69689669    -0.08900
C2831       C  0.52883209  0.15803916  0.65347563     0.06700
C2832       C  0.54462276  0.16683870  0.64456879    -0.14000
S2833       S  0.55701740  0.18990146  0.76378570    -0.30900
H2834       H  0.52486946  0.16892179  0.76313790     0.10900
S2835       S  0.51820598  0.14699164  0.60760598    -0.28000
H2836       H  0.55012525  0.16635345  0.61132677     0.08200
H2837       H  0.56524744  0.23906908  0.64942951     0.26600
H2838       H  0.54416409  0.18733575  0.79688423     0.21400
H2839       H  0.50094231  0.15119427  0.62100539     0.26700
H2840       H  0.57568813  0.15248002  0.70334737     0.15600
C2841       C  0.58461944  0.30779268  0.58465783    -0.11700
C2842       C  0.58867034  0.31626297  0.62476080     0.14800
C2843       C  0.60229469  0.30953111  0.65185474     0.01700
C2844       C  0.61245598  0.29539733  0.63661139    -0.16100
C2845       C  0.60884619  0.28729074  0.59571492    -0.10900
C2846       C  0.59458158  0.29343795  0.56974413     0.08400
C2847       C  0.57958479  0.33296795  0.63551661     0.09500
S2848       S  0.60745853  0.31850246  0.70588244    -0.25200
H2849       H  0.62318144  0.29057664  0.65702882     0.19700
S2850       S  0.58917983  0.28440713  0.51599174    -0.30900
H2851       H  0.57415048  0.31292657  0.56386600     0.10000
C2852       C  0.58867534  0.34921079  0.63430228     0.03200
C2853       C  0.58000065  0.36462851  0.64758075    -0.13200
C2854       C  0.56235543  0.36419174  0.66158358    -0.08900
C2855       C  0.55290758  0.34810803  0.65948409     0.06700
C2856       C  0.56167156  0.33262880  0.64692115    -0.14000
S2857       S  0.61132331  0.35033365  0.61578939    -0.30900
H2858       H  0.58718659  0.37698967  0.64860172     0.10900
S2859       S  0.52965826  0.34659800  0.67131962    -0.28000
H2860       H  0.55454423  0.32021417  0.64637837     0.08200
H2861       H  0.60675867  0.28198005  0.50248516     0.26600
H2862       H  0.61395535  0.36838638  0.62468336     0.21400
H2863       H  0.52558575  0.36366373  0.65589757     0.26700
H2864       H  0.59046234  0.32487970  0.71520086     0.15600
C2865       C  0.86152697  0.25102623  0.17438014    -0.11700
C2866       C  0.84412603  0.24669035  0.18539694     0.14800
C2867       C  0.83059000  0.24976629  0.15427331     0.01700
C2868       C  0.83461893  0.25805635  0.11399241    -0.16100
C2869       C  0.85204575  0.26279106  0.10316608    -0.10900
C2870       C  0.86573860  0.25838052  0.13328319     0.08400
C2871       C  0.84054980  0.24067709  0.23121035     0.09500
S2872       S  0.80798628  0.24346829  0.16403565    -0.25200
H2873       H  0.82398025  0.26090473  0.09110146     0.19700
S2874       S  0.88889398  0.26107556  0.12142372    -0.30900
H2875       H  0.87198650  0.24862153  0.19814581     0.10000
C2876       C  0.84882215  0.22560095  0.24896356     0.03200
C2877       C  0.84767134  0.22233451  0.29461274    -0.13200
C2878       C  0.83826195  0.23373253  0.32287758    -0.08900
C2879       C  0.82868315  0.24793714  0.30427553     0.06700
C2880       C  0.83018638  0.25139757  0.25873538    -0.14000
S2881       S  0.86112945  0.21070553  0.21371666    -0.30900
H2882       H  0.85483279  0.21129251  0.30858348     0.10900
S2883       S  0.81437494  0.26162673  0.33777619    -0.28000
H2884       H  0.82375584  0.26285853  0.24462045     0.08200
H2885       H  0.88762007  0.25399935  0.07826625     0.26600
H2886       H  0.86560547  0.19841324  0.24690302     0.21400
H2887       H  0.80801710  0.27234958  0.30314391     0.26700
H2888       H  0.81181695  0.22917581  0.19228653     0.15600
C2889       C  0.83767178  0.27286791  0.76248558    -0.11700
C2890       C  0.84833164  0.28293476  0.73428605     0.14800
C2891       C  0.85606091  0.29867573  0.75015439     0.01700
C2892       C  0.85363857  0.30350503  0.79463326    -0.16100
C2893       C  0.84403920  0.29269308  0.82396360    -0.10900
C2894       C  0.83537499  0.27751155  0.80687404     0.08400
C2895       C  0.85142010  0.27616485  0.68906362     0.09500
S2896       S  0.86988414  0.31262083  0.71620511    -0.25200
H2897       H  0.86028909  0.31517716  0.80701495     0.19700
S2898       S  0.82135135  0.26321883  0.83936078    -0.30900
H2899       H  0.83138054  0.26101081  0.74990666     0.10000
C2900       C  0.86130456  0.26066558  0.68225499     0.03200
C2901       C  0.86308486  0.25394361  0.63925163    -0.13200
C2902       C  0.85545416  0.26254105  0.60259155    -0.08900
C2903       C  0.84609622  0.27850277  0.60956116     0.06700
C2904       C  0.84389361  0.28491129  0.65277553    -0.14000
S2905       S  0.87191225  0.24957563  0.72826841    -0.30900
H2906       H  0.87036103  0.24180978  0.63425957     0.10900
S2907       S  0.83739007  0.29180978  0.56503727    -0.28000
H2908       H  0.83645663  0.29693845  0.65817729     0.08200
H2909       H  0.81478510  0.27680299  0.86621563     0.26600
H2910       H  0.87965407  0.23586680  0.70350428     0.21400
H2911       H  0.85235693  0.28989611  0.53779703     0.26700
H2912       H  0.87691869  0.29902630  0.68982152     0.15600
C2913       C  0.73620577  0.23863622  0.53058942    -0.11700
C2914       C  0.74307090  0.22154799  0.53412367     0.14800
C2915       C  0.73201614  0.20756328  0.54748661     0.01700
C2916       C  0.71420716  0.21091214  0.55589478    -0.16100
C2917       C  0.70713029  0.22805610  0.55220773    -0.10900
C2918       C  0.71844077  0.24206468  0.53897888     0.08400
C2919       C  0.76178385  0.21893613  0.52275867     0.09500
S2920       S  0.73983521  0.18524745  0.55477705    -0.25200
H2921       H  0.70590850  0.20001832  0.56636143     0.19700
S2922       S  0.71123673  0.26448940  0.53035252    -0.30900
H2923       H  0.74473884  0.24936556  0.52013902     0.10000
C2924       C  0.76695217  0.21139850  0.48193380     0.03200
C2925       C  0.78488952  0.21100937  0.47064123    -0.13200
C2926       C  0.79756491  0.21830614  0.49913993    -0.08900
C2927       C  0.79238428  0.22511844  0.54081107     0.06700
C2928       C  0.77455257  0.22547942  0.55201526    -0.14000
S2929       S  0.75064325  0.20351612  0.44296691    -0.30900
H2930       H  0.78896549  0.20600284  0.43853839     0.10900
S2931       S  0.80789126  0.23391019  0.58058673    -0.28000
H2932       H  0.77053680  0.23120782  0.58343379     0.08200
H2933       H  0.69627759  0.25958689  0.50588209     0.26600
H2934       H  0.76250504  0.19849526  0.40933415     0.21400
H2935       H  0.82216066  0.22324582  0.56757067     0.26700
H2936       H  0.75726020  0.18970337  0.56593541     0.15600
C2937       C  0.87605858  0.15061560  0.59146952    -0.11700
C2938       C  0.88284372  0.15658586  0.63206982     0.14800
C2939       C  0.88183278  0.17468325  0.64295479     0.01700
C2940       C  0.87503716  0.18655231  0.61182392    -0.16100
C2941       C  0.86977362  0.18085439  0.56945531    -0.10900
C2942       C  0.86974519  0.16254633  0.55978358     0.08400
C2943       C  0.89430125  0.14470753  0.65797643     0.09500
S2944       S  0.89118772  0.18311587  0.69401249    -0.25200
H2945       H  0.87499853  0.20054763  0.61935063     0.19700
S2946       S  0.86399695  0.15371013  0.50610961    -0.30900
H2947       H  0.87709429  0.13673861  0.58296502     0.10000
C2948       C  0.89030615  0.13967773  0.70184169     0.03200
C2949       C  0.90370289  0.13267038  0.72862139    -0.13200
C2950       C  0.92087951  0.13040679  0.71186236    -0.08900
C2951       C  0.92395267  0.13304302  0.66601135     0.06700
C2952       C  0.91074949  0.14045055  0.63980787    -0.14000
S2953       S  0.86854965  0.14327862  0.72435033    -0.30900
H2954       H  0.90111181  0.13030285  0.76350194     0.10900
S2955       S  0.94449813  0.12775066  0.63915743    -0.28000
H2956       H  0.91362427  0.14377179  0.60550717     0.08200
H2957       H  0.87499646  0.16539989  0.48249470     0.26600
H2958       H  0.87142915  0.13455570  0.76498971     0.21400
H2959       H  0.94899735  0.11402675  0.66859555     0.26700
H2960       H  0.88472052  0.20045572  0.69004834     0.15600
C2961       C  0.95754972  0.15602855  0.38854293    -0.11700
C2962       C  0.94976277  0.16674739  0.35599057     0.14800
C2963       C  0.95843068  0.16929037  0.31505730     0.01700
C2964       C  0.97476236  0.16132233  0.30783728    -0.16100
C2965       C  0.98269828  0.15060134  0.34036686    -0.10900
C2966       C  0.97393887  0.14806618  0.38142031     0.08400
C2967       C  0.93358752  0.17653152  0.36766925     0.09500
S2968       S  0.94934198  0.18247806  0.27068588    -0.25200
H2969       H  0.98116961  0.16327862  0.27601053     0.19700
S2970       S  0.98332007  0.13582258  0.42701106    -0.30900
H2971       H  0.95108370  0.15439625  0.42042297     0.10000
C2972       C  0.91747410  0.16780929  0.37535880     0.03200
C2973       C  0.90302228  0.17748685  0.39109930    -0.13200
C2974       C  0.90439959  0.19572257  0.39934275    -0.08900
C2975       C  0.92025603  0.20458895  0.38833395     0.06700
C2976       C  0.93470469  0.19486174  0.37336225    -0.14000
S2977       S  0.91541299  0.14434437  0.36572057    -0.30900
H2978       H  0.89087968  0.17065956  0.39905715     0.10900
S2979       S  0.92295925  0.22822343  0.39239898    -0.28000
H2980       H  0.94703460  0.20160075  0.36663884     0.08200
H2981       H  0.00054917  0.14223537  0.42057587     0.26600
H2982       H  0.89775688  0.14274387  0.37942464     0.21400
H2983       H  0.90542604  0.23221232  0.38099347     0.26700
H2984       H  0.93155050  0.17962840  0.28163041     0.15600
C2985       C  0.92066587  0.34240072  0.42649307    -0.11700
C2986       C  0.91982463  0.32785804  0.39758025     0.14800
C2987       C  0.92807559  0.32885793  0.35568385     0.01700
C2988       C  0.93635816  0.34448346  0.34293719    -0.16100
C2989       C  0.93710499  0.35917275  0.37144105    -0.10900
C2990       C  0.92952580  0.35790061  0.41423611     0.08400
C2991       C  0.90987610  0.31196250  0.41113614     0.09500
S2992       S  0.92842590  0.31071724  0.31678011    -0.25200
H2993       H  0.94205562  0.34522551  0.30994433     0.19700
S2994       S  0.93137131  0.37517048  0.45510881    -0.30900
H2995       H  0.91451010  0.34158870  0.45894084     0.10000
C2996       C  0.91568547  0.30114365  0.44620606     0.03200
C2997       C  0.90610144  0.28591971  0.45695740    -0.13200
C2998       C  0.89086274  0.28119116  0.43317856    -0.08900
C2999       C  0.88534272  0.29184158  0.39713259     0.06700
C3000       C  0.89479009  0.30723965  0.38700807    -0.14000
S3001       S  0.93559312  0.30640527  0.47639062    -0.30900
H3002       H  0.91037102  0.27778118  0.48449109     0.10900
S3003       S  0.86695491  0.28555200  0.36225308    -0.28000
H3004       H  0.89064099  0.31555880  0.35968536     0.08200
H3005       H  0.94853404  0.38002629  0.44228233     0.26600
H3006       H  0.93465621  0.29236804  0.50694553     0.21400
H3007       H  0.86793753  0.29987306  0.33255092     0.26700
H3008       H  0.92904196  0.29727571  0.34901056     0.15600
loop_ 
_geom_bond_atom_site_label_1 
_geom_bond_atom_site_label_2 
_geom_bond_distance 
_geom_bond_site_symmetry_2 
_ccdc_geom_bond_type 
Fe1          O17   2.053       .  S
Fe1           O7   2.059       .  S
Fe1          O14   2.060       .  S
Fe1           O6   2.043       .  S
Fe1          O12   1.974       .  S
Fe2           O5   2.047       .  S
Fe2           O9   2.057       .  S
Fe2          O13   2.053       .  S
Fe2          O18   2.051       .  S
Fe2          O12   1.972       .  S
Fe3          O21   2.069       .  S
Fe3           O8   2.061       .  S
Fe3          O15   2.055       .  S
Fe3           O4   2.066       .  S
Fe3          O12   1.987       .  S
O4           C11   1.266       .  A
O5           C19   1.265       .  A
O6           C11   1.263       .  A
O7           C10   1.269       .  A
O8           C20   1.267       .  A
O9           C22   1.266       .  A
C10          O15   1.269       .  A
C10        C2878   1.478       .  S
C11        C2926   1.466       .  S
O13          C16   1.268       .  A
O14          C16   1.268       .  A
C16        C2902   1.479       .  S
O17          C22   1.264       .  A
O18          C20   1.268       .  A
C19          O21   1.269       .  A
C19        C2974   1.479       .  S
C20        C2941   1.476       .  S
C22        C2998   1.479       .  S
Fe23         O39   2.069       .  S
Fe23         O29   2.037       .  S
Fe23         O36   2.052       .  S
Fe23         O28   2.071       .  S
Fe23         O34   1.962       .  S
Fe24         O27   2.065       .  S
Fe24         O31   2.047       .  S
Fe24         O35   2.073       .  S
Fe24         O40   2.046       .  S
Fe24         O34   1.960       .  S
Fe25         O43   2.058       .  S
Fe25         O30   2.077       .  S
Fe25         O37   2.083       .  S
Fe25         O26   2.053       .  S
Fe25         O34   1.970       .  S
O26          C33   1.267       .  A
O27          C41   1.270       .  A
O28          C33   1.267       .  A
O29          C32   1.266       .  A
O30          C42   1.270       .  A
O31          C44   1.262       .  A
C32          O37   1.272       .  A
C32        C2782   1.463       .  S
C33        C2917   1.486       .  S
O35          C38   1.272       .  A
O36          C38   1.268       .  A
C38        C2749   1.462       .  S
O39          C44   1.267       .  A
O40          C42   1.266       .  A
C41          O43   1.269       .  A
C41        C2821   1.472       .  S
C42        C2806   1.483       .  S
C44        C2845   1.472       .  S
Fe45         O61   2.054   1_556  S
Fe45         O51   2.071       .  S
Fe45         O58   2.068       .  S
Fe45         O50   2.034       .  S
Fe45         O56   1.975       .  S
Fe46         O49   2.052       .  S
Fe46         O53   2.052       .  S
Fe46         O57   2.062   1_554  S
Fe46         O62   2.058   1_554  S
Fe46         O56   1.968   1_554  S
Fe47         O65   2.078   1_556  S
Fe47         O52   2.067       .  S
Fe47         O59   2.059       .  S
Fe47         O48   2.082       .  S
Fe47         O56   1.977       .  S
O48          C55   1.273       .  A
O49          C63   1.269       .  A
O50          C55   1.263       .  A
O51          C54   1.269       .  A
O52          C64   1.268       .  A
O53          C66   1.264       .  A
C54          O59   1.266       .  A
C54        C2653   1.472       .  S
C55        C2893   1.480       .  S
O57          C60   1.270       .  A
O58          C60   1.270       .  A
C60        C2686   1.473       .  S
O61          C66   1.266       .  A
O62          C64   1.266       .  A
C63          O65   1.273       .  A
C63        C2701   1.483       .  S
C64        C2725   1.479       .  S
C66        C2869   1.483       .  S
Fe67         O83   2.060       .  S
Fe67         O73   2.065       .  S
Fe67         O80   2.068       .  S
Fe67         O72   2.046       .  S
Fe67         O78   1.967       .  S
Fe68         O71   2.064   1_554  S
Fe68         O75   2.062   1_554  S
Fe68         O79   2.062       .  S
Fe68         O84   2.060       .  S
Fe68         O78   1.963       .  S
Fe69         O87   2.065       .  S
Fe69         O74   2.060       .  S
Fe69         O81   2.061       .  S
Fe69         O70   2.078       .  S
Fe69         O78   1.974       .  S
O70          C77   1.270       .  A
O71          C85   1.271       .  A
O72          C77   1.267       .  A
O73          C76   1.268       .  A
O74          C86   1.269       .  A
O75          C88   1.270       .  A
C76          O81   1.266       .  A
C76        C2662   1.474       .  S
C77        C2758   1.463       .  S
O79          C82   1.267       .  A
O80          C82   1.267       .  A
C82        C2581   1.483       .  S
O83          C88   1.269   1_554  A
O84          C86   1.268       .  A
C85          O87   1.267   1_556  A
C85        C2605   1.482       .  S
C86        C2638   1.471       .  S
C88        C2773   1.462       .  S
Fe89        O105   2.054       .  S
Fe89         O95   2.077       .  S
Fe89        O102   2.087       .  S
Fe89         O94   2.040       .  S
Fe89        O100   1.955       .  S
Fe90         O93   2.051       .  S
Fe90         O97   2.078       .  S
Fe90        O101   2.043       .  S
Fe90        O106   2.078       .  S
Fe90        O100   1.946       .  S
Fe91        O109   2.078       .  S
Fe91         O96   2.050       .  S
Fe91        O103   2.051       .  S
Fe91         O92   2.081       .  S
Fe91        O100   1.956       .  S
O92          C99   1.272       .  A
O93         C107   1.269       .  A
O94          C99   1.266       .  A
O95          C98   1.271       .  A
O96         C108   1.267       .  A
O97         C110   1.272       .  A
C98         O103   1.265       .  A
C98        C2566   1.465       .  S
C99        C2518   1.470       .  S
O101        C104   1.267       .  A
O102        C104   1.272       .  A
C104       C2485   1.481       .  S
O105        C110   1.267       .  A
O106        C108   1.271       .  A
C107        O109   1.271       .  A
C107       C2614   1.478       .  S
C108       C2854   1.475       .  S
C110       C2542   1.472       .  S
Fe111       O127   2.056       .  S
Fe111       O117   2.051       .  S
Fe111       O124   2.058       .  S
Fe111       O116   2.048       .  S
Fe111       O122   1.978       .  S
Fe112       O115   2.053       .  S
Fe112       O119   2.056       .  S
Fe112       O123   2.063       .  S
Fe112       O128   2.055       .  S
Fe112       O122   1.971       .  S
Fe113       O131   2.073       .  S
Fe113       O118   2.072       .  S
Fe113       O125   2.067       .  S
Fe113       O114   2.074       .  S
Fe113       O122   1.981       .  S
O114        C121   1.272       .  A
O115        C129   1.268       .  A
O116        C121   1.267       .  A
O117        C120   1.264       .  A
O118        C130   1.269       .  A
O119        C132   1.268       .  A
C120        O125   1.268       .  A
C120       C2557   1.480       .  S
C121       C2437   1.480       .  S
O123        C126   1.267       .  A
O124        C126   1.267       .  A
C126       C2413   1.480       .  S
O127        C132   1.267       .  A
O128        C130   1.267       .  A
C129        O131   1.271       .  A
C129       C2389   1.481       .  S
C130       C2374   1.485       .  S
C132       C2470   1.477       .  S
Fe133       O149   2.080       .  S
Fe133       O139   2.040       .  S
Fe133       O146   2.050       .  S
Fe133       O138   2.068       .  S
Fe133       O144   1.956       .  S
Fe134       O137   2.063       .  S
Fe134       O141   2.049       .  S
Fe134       O145   2.071       .  S
Fe134       O150   2.046       .  S
Fe134       O144   1.950       .  S
Fe135       O153   2.062       .  S
Fe135       O140   2.089       .  S
Fe135       O147   2.091       .  S
Fe135       O136   2.067       .  S
Fe135       O144   1.963       .  S
O136        C143   1.268       .  A
O137        C151   1.268       .  A
O138        C143   1.269       .  A
O139        C142   1.268       .  A
O140        C152   1.273       .  A
O141        C154   1.264       .  A
C142        O147   1.275       .  A
C142       C2533   1.477       .  S
C143       C2341   1.476       .  S
O145        C148   1.271       .  A
O146        C148   1.267       .  A
C148       C2509   1.477       .  S
O149        C154   1.270       .  A
O150        C152   1.269       .  A
C151        O153   1.268       .  A
C151       C2293   1.475       .  S
C152       C2326   1.494       .  S
C154       C2629   1.465       .  S
Fe155       O171   2.062       .  S
Fe155       O161   2.033       .  S
Fe155       O168   2.050       .  S
Fe155       O160   2.053       .  S
Fe155       O166   1.975       .  S
Fe156       O159   2.065       .  S
Fe156       O163   2.074       .  S
Fe156       O167   2.063       .  S
Fe156       O172   2.053       .  S
Fe156       O166   1.971       .  S
Fe157       O175   2.081       .  S
Fe157       O162   2.075       .  S
Fe157       O169   2.077       .  S
Fe157       O158   2.084       .  S
Fe157       O166   1.982       .  S
O158        C165   1.272       .  A
O159        C173   1.270       .  A
O160        C165   1.268       .  A
O161        C164   1.264       .  A
O162        C174   1.270       .  A
O163        C176   1.270       .  A
C164        O169   1.269       .  A
C164       C2461   1.491       .  S
C165       C2350   1.480       .  S
O167        C170   1.269       .  A
O168        C170   1.263       .  A
C170       C2446   1.485       .  S
O171        C176   1.268       .  A
O172        C174   1.268       .  A
C173        O175   1.273       .  A
C173       C2245   1.495       .  S
C174       C2269   1.482       .  S
C176       C2221   1.480       .  S
Fe177       O193   2.067       .  S
Fe177       O183   2.063       .  S
Fe177       O190   2.068   1_556  S
Fe177       O182   2.056       .  S
Fe177       O188   1.965       .  S
Fe178       O181   2.053   1_554  S
Fe178       O185   2.078   1_554  S
Fe178       O189   2.044       .  S
Fe178       O194   2.067       .  S
Fe178       O188   1.954   1_554  S
Fe179       O197   2.076       .  S
Fe179       O184   2.063   1_556  S
Fe179       O191   2.058       .  S
Fe179       O180   2.080       .  S
Fe179       O188   1.969       .  S
O180        C187   1.271       .  A
O181        C195   1.269       .  A
O182        C187   1.268       .  A
O183        C186   1.269       .  A
O184        C196   1.268       .  A
O185        C198   1.271       .  A
C186        O191   1.268       .  A
C186       C2149   1.469       .  S
C187       C2197   1.478       .  S
O189        C192   1.267       .  A
O190        C192   1.266       .  A
C192       C2182   1.488       .  S
O193        C198   1.270       .  A
O194        C196   1.270       .  A
C195        O197   1.271       .  A
C195       C2422   1.482       .  S
C196       C2278   1.474       .  S
C198       C2134   1.485       .  S
Fe199       O215   2.058       .  S
Fe199       O205   2.067       .  S
Fe199       O212   2.071       .  S
Fe199       O204   2.042       .  S
Fe199       O210   1.953       .  S
Fe200       O203   2.044       .  S
Fe200       O207   2.068       .  S
Fe200       O211   2.050   1_554  S
Fe200       O216   2.070       .  S
Fe200       O210   1.950       .  S
Fe201       O219   2.087       .  S
Fe201       O206   2.055       .  S
Fe201       O213   2.044       .  S
Fe201       O202   2.085       .  S
Fe201       O210   1.959       .  S
O202        C209   1.272       .  A
O203        C217   1.269       .  A
O204        C209   1.265       .  A
O205        C208   1.270       .  A
O206        C218   1.265   1_554  A
O207        C220   1.266       .  A
C208        O213   1.267       .  A
C208       C2101   1.461       .  S
C209       C2206   1.479       .  S
O211        C214   1.271       .  A
O212        C214   1.272   1_554  A
C214       C2077   1.474       .  S
O215        C220   1.266       .  A
O216        C218   1.268   1_554  A
C217        O219   1.274       .  A
C217       C2053   1.483       .  S
C218       C2029   1.467       .  S
C220       C2005   1.479       .  S
Fe221       O237   2.056       .  S
Fe221       O227   2.059       .  S
Fe221       O234   2.071       .  S
Fe221       O226   2.050       .  S
Fe221       O232   1.979       .  S
Fe222       O225   2.061       .  S
Fe222       O229   2.059       .  S
Fe222       O233   2.071       .  S
Fe222       O238   2.055       .  S
Fe222       O232   1.974       .  S
Fe223       O241   2.062       .  S
Fe223       O228   2.067       .  S
Fe223       O235   2.070       .  S
Fe223       O224   2.057       .  S
Fe223       O232   1.984       .  S
O224        C231   1.268       .  A
O225        C239   1.268       .  A
O226        C231   1.267       .  A
O227        C230   1.266       .  A
O228        C240   1.271       .  A
O229        C242   1.269       .  A
C230        O235   1.268       .  A
C230       C1990   1.469       .  S
C231       C2173   1.468       .  S
O233        C236   1.268       .  A
O234        C236   1.268       .  A
C236       C2254   1.490       .  S
O237        C242   1.269       .  A
O238        C240   1.268       .  A
C239        O241   1.266       .  A
C239       C1942   1.468       .  S
C240       C1966   1.483       .  S
C242       C2158   1.476       .  S
Fe243       O259   2.063       .  S
Fe243       O249   2.056       .  S
Fe243       O256   2.063       .  S
Fe243       O248   2.058       .  S
Fe243       O254   1.962       .  S
Fe244       O247   2.058       .  S
Fe244       O251   2.055       .  S
Fe244       O255   2.070       .  S
Fe244       O260   2.055       .  S
Fe244       O254   1.952       .  S
Fe245       O263   2.068       .  S
Fe245       O250   2.081       .  S
Fe245       O257   2.083       .  S
Fe245       O246   2.055       .  S
Fe245       O254   1.962       .  S
O246        C253   1.268       .  A
O247        C261   1.267       .  A
O248        C253   1.267       .  A
O249        C252   1.268       .  A
O250        C262   1.273       .  A
O251        C264   1.268       .  A
C252        O257   1.273       .  A
C252       C1981   1.485       .  S
C253       C2086   1.470       .  S
O255        C258   1.269       .  A
O256        C258   1.269       .  A
C258       C1909   1.484       .  S
O259        C264   1.267       .  A
O260        C262   1.268       .  A
C261        O263   1.269       .  A
C261       C1870   1.480       .  S
C262       C1894   1.482       .  S
C264       C2110   1.463       .  S
Fe265       O281   2.068       .  S
Fe265       O271   2.061       .  S
Fe265       O278   2.067       .  S
Fe265       O270   2.059       .  S
Fe265       O276   1.955       .  S
Fe266       O269   2.058       .  S
Fe266       O273   2.065       .  S
Fe266       O277   2.061       .  S
Fe266       O282   2.062       .  S
Fe266       O276   1.956       .  S
Fe267       O285   2.082       .  S
Fe267       O272   2.066       .  S
Fe267       O279   2.062       .  S
Fe267       O268   2.084       .  S
Fe267       O276   1.963       .  S
O268        C275   1.271       .  A
O269        C283   1.269       .  A
O270        C275   1.268       .  A
O271        C274   1.266       .  A
O272        C284   1.270       .  A
O273        C286   1.270       .  A
C274        O279   1.271       .  A
C274       C1741   1.491       .  S
C275       C1789   1.471       .  S
O277        C280   1.270       .  A
O278        C280   1.269       .  A
C280       C1774   1.483       .  S
O281        C286   1.269       .  A
O282        C284   1.270       .  A
C283        O285   1.272       .  A
C283       C1813   1.490       .  S
C284       C1837   1.469       .  S
C286       C2734   1.491   1_455  S
Fe287       O303   2.064       .  S
Fe287       O293   2.060       .  S
Fe287       O300   2.067       .  S
Fe287       O292   2.053       .  S
Fe287       O298   1.957       .  S
Fe288       O291   2.048       .  S
Fe288       O295   2.071       .  S
Fe288       O299   2.060       .  S
Fe288       O304   2.068       .  S
Fe288       O298   1.954       .  S
Fe289       O307   2.089       .  S
Fe289       O294   2.056       .  S
Fe289       O301   2.052       .  S
Fe289       O290   2.087       .  S
Fe289       O298   1.966       .  S
O290        C297   1.272       .  A
O291        C305   1.268       .  A
O292        C297   1.268       .  A
O293        C296   1.270       .  A
O294        C306   1.266       .  A
O295        C308   1.269       .  A
C296        O301   1.268       .  A
C296       C1693   1.477       .  S
C297       C1798   1.476       .  S
O299        C302   1.271       .  A
O300        C302   1.270       .  A
C302       C1717   1.482       .  S
O303        C308   1.267       .  A
O304        C306   1.269       .  A
C305        O307   1.274       .  A
C305       C1918   1.482       .  S
C306       C2038   1.463       .  S
C308       C1678   1.495   1_455  S
Fe309       O325   2.069       .  S
Fe309       O315   2.045       .  S
Fe309       O322   2.055   1_655  S
Fe309       O314   2.051       .  S
Fe309       O320   1.974       .  S
Fe310       O313   2.045       .  S
Fe310       O317   2.043       .  S
Fe310       O321   2.060       .  S
Fe310       O326   2.041       .  S
Fe310       O320   1.960       .  S
Fe311       O329   2.078       .  S
Fe311       O316   2.076       .  S
Fe311       O323   2.072       .  S
Fe311       O312   2.074       .  S
Fe311       O320   1.981       .  S
O312        C319   1.271       .  A
O313        C327   1.266       .  A
O314        C319   1.265       .  A
O315        C318   1.267       .  A
O316        C328   1.271       .  A
O317        C330   1.263       .  A
C318        O323   1.270       .  A
C318       C1621   1.462       .  S
C319       C1765   1.483       .  S
O321        C324   1.267   1_655  A
O322        C324   1.268       .  A
C324       C1645   1.481       .  S
O325        C330   1.268       .  A
O326        C328   1.266       .  A
C327        O329   1.271       .  A
C327       C2710   1.477       .  S
C328       C2989   1.477       .  S
C330       C1750   1.478       .  S
Fe331       O347   2.052       .  S
Fe331       O337   2.043       .  S
Fe331       O344   2.052   1_655  S
Fe331       O336   2.045       .  S
Fe331       O342   1.972       .  S
Fe332       O335   2.047       .  S
Fe332       O339   2.058       .  S
Fe332       O343   2.052       .  S
Fe332       O348   2.061       .  S
Fe332       O342   1.969       .  S
Fe333       O351   2.071       .  S
Fe333       O338   2.068       .  S
Fe333       O345   2.065       .  S
Fe333       O334   2.069       .  S
Fe333       O342   1.985       .  S
O334        C341   1.270       .  A
O335        C349   1.265       .  A
O336        C341   1.266       .  A
O337        C340   1.264       .  A
O338        C350   1.271       .  A
O339        C352   1.269       .  A
C340        O345   1.269       .  A
C340       C1630   1.482       .  S
C341       C1726   1.478       .  S
O343        C346   1.265   1_655  A
O344        C346   1.265       .  A
C346       C2062   1.470       .  S
O347        C352   1.266       .  A
O348        C350   1.270       .  A
C349        O351   1.268       .  A
C349       C1606   1.476       .  S
C350       C1573   1.479       .  S
C352       C1702   1.475   1_655  S
Fe353       O369   2.075       .  S
Fe353       O359   2.037       .  S
Fe353       O366   2.036       .  S
Fe353       O358   2.064       .  S
Fe353       O364   1.964       .  S
Fe354       O357   2.061       .  S
Fe354       O361   2.062       .  S
Fe354       O365   2.074       .  S
Fe354       O370   2.055       .  S
Fe354       O364   1.961       .  S
Fe355       O373   2.070       .  S
Fe355       O360   2.076       .  S
Fe355       O367   2.079       .  S
Fe355       O356   2.070       .  S
Fe355       O364   1.975       .  S
O356        C363   1.268       .  A
O357        C371   1.267       .  A
O358        C363   1.267       .  A
O359        C362   1.266       .  A
O360        C372   1.271       .  A
O361        C374   1.267       .  A
C362        O367   1.272       .  A
C362       C1510   1.460       .  S
C363       C1549   1.479       .  S
O365        C368   1.272       .  A
O366        C368   1.263       .  A
C368       C1525   1.476       .  S
O369        C374   1.269       .  A
O370        C372   1.271       .  A
C371        O373   1.270       .  A
C371       C2590   1.482       .  S
C372       C2797   1.484       .  S
C374       C1486   1.477       .  S
Fe375       O391   2.065       .  S
Fe375       O381   2.054       .  S
Fe375       O388   2.051       .  S
Fe375       O380   2.054       .  S
Fe375       O386   1.975       .  S
Fe376       O379   2.052       .  S
Fe376       O383   2.057       .  S
Fe376       O387   2.062       .  S
Fe376       O392   2.050       .  S
Fe376       O386   1.972       .  S
Fe377       O395   2.079       .  S
Fe377       O382   2.065       .  S
Fe377       O389   2.057       .  S
Fe377       O378   2.079       .  S
Fe377       O386   1.984       .  S
O378        C385   1.270       .  A
O379        C393   1.268       .  A
O380        C385   1.267       .  A
O381        C384   1.267       .  A
O382        C394   1.266       .  A
O383        C396   1.265       .  A
C384        O389   1.268       .  A
C384       C1453   1.473       .  S
C385       C1558   1.478       .  S
O387        C390   1.270       .  A
O388        C390   1.267       .  A
C390       C1438   1.473       .  S
O391        C396   1.268       .  A
O392        C394   1.265       .  A
C393        O395   1.273       .  A
C393       C1390   1.483       .  S
C394       C1405   1.463       .  S
C396       C1957   1.481       .  S
Fe397       O413   2.063       .  S
Fe397       O403   2.039       .  S
Fe397       O410   2.048       .  S
Fe397       O402   2.051       .  S
Fe397       O408   1.966       .  S
Fe398       O401   2.059       .  S
Fe398       O405   2.048       .  S
Fe398       O409   2.073       .  S
Fe398       O414   2.052       .  S
Fe398       O408   1.957       .  S
Fe399       O417   2.061       .  S
Fe399       O404   2.088       .  S
Fe399       O411   2.091       .  S
Fe399       O400   2.058       .  S
Fe399       O408   1.971       .  S
O400        C407   1.268       .  A
O401        C415   1.267       .  A
O402        C407   1.265       .  A
O403        C406   1.266       .  A
O404        C416   1.275       .  A
O405        C418   1.266       .  A
C406        O411   1.274       .  A
C406       C1366   1.478       .  S
C407       C1534   1.472       .  S
O409        C412   1.270       .  A
O410        C412   1.266       .  A
C412       C2830   1.476       .  S
O413        C418   1.266       .  A
O414        C416   1.270       .  A
C415        O417   1.267       .  A
C415       C1333   1.474       .  S
C416       C1309   1.486       .  S
C418       C1501   1.463       .  S
Fe419       O435   2.052       .  S
Fe419       O425   2.053       .  S
Fe419       O432   2.067       .  S
Fe419       O424   2.051       .  S
Fe419       O430   1.976       .  S
Fe420       O423   2.049       .  S
Fe420       O427   2.062       .  S
Fe420       O431   2.056       .  S
Fe420       O436   2.062       .  S
Fe420       O430   1.966       .  S
Fe421       O439   2.072       .  S
Fe421       O426   2.077       .  S
Fe421       O433   2.074       .  S
Fe421       O422   2.064       .  S
Fe421       O430   1.977       .  S
O422        C429   1.271       .  A
O423        C437   1.265       .  A
O424        C429   1.267       .  A
O425        C428   1.266       .  A
O426        C438   1.272       .  A
O427        C440   1.270       .  A
C428        O433   1.268       .  A
C428       C1357   1.480       .  S
C429       C1429   1.469       .  S
O431        C434   1.265       .  A
O432        C434   1.267       .  A
C434       C1285   1.481       .  S
O435        C440   1.268       .  A
O436        C438   1.270       .  A
C437        O439   1.268       .  A
C437       C1933   1.466       .  S
C438       C2125   1.486       .  S
C440       C1462   1.475       .  S
Fe441       O457   2.057       .  S
Fe441       O447   2.062       .  S
Fe441       O454   2.073       .  S
Fe441       O446   2.055       .  S
Fe441       O452   1.959       .  S
Fe442       O445   2.045       .  S
Fe442       O449   2.074       .  S
Fe442       O453   2.037   1_554  S
Fe442       O458   2.068   1_554  S
Fe442       O452   1.954       .  S
Fe443       O461   2.090       .  S
Fe443       O448   2.053       .  S
Fe443       O455   2.046       .  S
Fe443       O444   2.086       .  S
Fe443       O452   1.967       .  S
O444        C451   1.272       .  A
O445        C459   1.266       .  A
O446        C451   1.268       .  A
O447        C450   1.271       .  A
O448        C460   1.267   1_554  A
O449        C462   1.268       .  A
C450        O455   1.267       .  A
C450       C1165   1.469       .  S
C451       C1222   1.488       .  S
O453        C456   1.266       .  A
O454        C456   1.270   1_554  A
C456       C1189   1.476       .  S
O457        C462   1.268       .  A
O458        C460   1.271       .  A
C459        O461   1.273       .  A
C459       C1261   1.482       .  S
C460       C1237   1.470       .  S
C462       C1582   1.483       .  S
Fe463       O479   2.059       .  S
Fe463       O469   2.064       .  S
Fe463       O476   2.073   1_556  S
Fe463       O468   2.055       .  S
Fe463       O474   1.965       .  S
Fe464       O467   2.049   1_554  S
Fe464       O471   2.069   1_554  S
Fe464       O475   2.057       .  S
Fe464       O480   2.064       .  S
Fe464       O474   1.966   1_554  S
Fe465       O483   2.087       .  S
Fe465       O470   2.061   1_556  S
Fe465       O477   2.050       .  S
Fe465       O466   2.082       .  S
Fe465       O474   1.973       .  S
O466        C473   1.271       .  A
O467        C481   1.268       .  A
O468        C473   1.268       .  A
O469        C472   1.269       .  A
O470        C482   1.266       .  A
O471        C484   1.267       .  A
C472        O477   1.268       .  A
C472       C1141   1.479       .  S
C473       C1213   1.483   1_556  S
O475        C478   1.270       .  A
O476        C478   1.272       .  A
C478       C1117   1.475       .  S
O479        C484   1.265       .  A
O480        C482   1.268       .  A
C481        O483   1.275       .  A
C481       C1294   1.487       .  S
C482       C1414   1.471       .  S
C484       C2365   1.478       .  S
Fe485       O501   2.053       .  S
Fe485       O491   2.075       .  S
Fe485       O498   2.073       .  S
Fe485       O490   2.039       .  S
Fe485       O496   1.970       .  S
Fe486       O489   2.065       .  S
Fe486       O493   2.060       .  S
Fe486       O497   2.068       .  S
Fe486       O502   2.059       .  S
Fe486       O496   1.965       .  S
Fe487       O505   2.066       .  S
Fe487       O492   2.073       .  S
Fe487       O499   2.069       .  S
Fe487       O488   2.073       .  S
Fe487       O496   1.975       .  S
O488        C495   1.272       .  A
O489        C503   1.271       .  A
O490        C495   1.266       .  A
O491        C494   1.269       .  A
O492        C504   1.269       .  A
O493        C506   1.269       .  A
C494        O499   1.267       .  A
C494       C1069   1.479       .  S
C495       C1198   1.476       .  S
O497        C500   1.269       .  A
O498        C500   1.270       .  A
C500       C1093   1.489       .  S
O501        C506   1.268       .  A
O502        C504   1.268       .  A
C503        O505   1.270       .  A
C503       C1597   1.479       .  S
C504       C1669   1.493       .  S
C506       C1174   1.470       .  S
Fe507       O523   2.067       .  S
Fe507       O513   2.050       .  S
Fe507       O520   2.055       .  S
Fe507       O512   2.061       .  S
Fe507       O518   1.971       .  S
Fe508       O511   2.061       .  S
Fe508       O515   2.047       .  S
Fe508       O519   2.072       .  S
Fe508       O524   2.060       .  S
Fe508       O518   1.963       .  S
Fe509       O527   2.066       .  S
Fe509       O514   2.078       .  S
Fe509       O521   2.084       .  S
Fe509       O510   2.065       .  S
Fe509       O518   1.972       .  S
O510        C517   1.269       .  A
O511        C525   1.270       .  A
O512        C517   1.270       .  A
O513        C516   1.266       .  A
O514        C526   1.270       .  A
O515        C528   1.265       .  A
C516        O521   1.271       .  A
C516       C1078   1.477       .  S
C517       C1126   1.491       .  S
O519        C522   1.270       .  A
O520        C522   1.267       .  A
C522       C1381   1.479       .  S
O523        C528   1.269       .  A
O524        C526   1.268       .  A
C525        O527   1.270       .  A
C525       C2398   1.473       .  S
C526       C2230   1.486       .  S
C528       C1150   1.482       .  S
Fe529       O545   2.068       .  S
Fe529       O535   2.058       .  S
Fe529       O542   2.065       .  S
Fe529       O534   2.054       .  S
Fe529       O540   1.981       .  S
Fe530       O533   2.050       .  S
Fe530       O537   2.058       .  S
Fe530       O541   2.049       .  S
Fe530       O546   2.058       .  S
Fe530       O540   1.968       .  S
Fe531       O549   2.068       .  S
Fe531       O536   2.067       .  S
Fe531       O543   2.069       .  S
Fe531       O532   2.064       .  S
Fe531       O540   1.986       .  S
O532        C539   1.268       .  A
O533        C547   1.265       .  A
O534        C539   1.267       .  A
O535        C538   1.268       .  A
O536        C548   1.270       .  A
O537        C550   1.269       .  A
C538        O543   1.270       .  A
C538        C997   1.481       .  S
C539       C1054   1.477       .  S
O541        C544   1.265       .  A
O542        C544   1.266       .  A
C544       C1021   1.483       .  S
O545        C550   1.270       .  A
O546        C548   1.270       .  A
C547        O549   1.269       .  A
C547       C2494   1.483       .  S
C548       C2317   1.473       .  S
C550       C1318   1.479       .  S
Fe551       O567   2.064       .  S
Fe551       O557   2.069       .  S
Fe551       O564   2.076       .  S
Fe551       O556   2.051       .  S
Fe551       O562   1.949       .  S
Fe552       O555   2.038       .  S
Fe552       O559   2.063       .  S
Fe552       O563   2.044       .  S
Fe552       O568   2.061       .  S
Fe552       O562   1.939       .  S
Fe553       O571   2.089       .  S
Fe553       O558   2.062       .  S
Fe553       O565   2.050       .  S
Fe553       O554   2.082       .  S
Fe553       O562   1.951       .  S
O554        C561   1.273       .  A
O555        C569   1.267       .  A
O556        C561   1.269       .  A
O557        C560   1.270       .  A
O558        C570   1.267       .  A
O559        C572   1.268       .  A
C560        O565   1.268       .  A
C560        C973   1.467       .  S
C561       C1045   1.472       .  S
O563        C566   1.267       .  A
O564        C566   1.271       .  A
C566        C958   1.463       .  S
O567        C572   1.269       .  A
O568        C570   1.267       .  A
C569        O571   1.275       .  A
C569       C1654   1.477       .  S
C570       C1846   1.462       .  S
C572        C925   1.480       .  S
Fe573       O589   2.076       .  S
Fe573       O579   2.050       .  S
Fe573       O586   2.057       .  S
Fe573       O578   2.066       .  S
Fe573       O584   1.974       .  S
Fe574       O577   2.060   1_554  S
Fe574       O581   2.053   1_554  S
Fe574       O585   2.064       .  S
Fe574       O590   2.058       .  S
Fe574       O584   1.963       .  S
Fe575       O593   2.056       .  S
Fe575       O580   2.075       .  S
Fe575       O587   2.071       .  S
Fe575       O576   2.057       .  S
Fe575       O584   1.979       .  S
O576        C583   1.268       .  A
O577        C591   1.268       .  A
O578        C583   1.270       .  A
O579        C582   1.266       .  A
O580        C592   1.270       .  A
O581        C594   1.267       .  A
C582        O587   1.269       .  A
C582        C901   1.477       .  S
C583       C1030   1.476       .  S
O585        C588   1.268       .  A
O586        C588   1.266       .  A
C588       C2302   1.480       .  S
O589        C594   1.272   1_554  A
O590        C592   1.268       .  A
C591        O593   1.266   1_556  A
C591       C1342   1.471       .  S
C592       C1477   1.474       .  S
C594       C1006   1.485       .  S
Fe595       O611   2.048   1_556  S
Fe595       O601   2.068       .  S
Fe595       O608   2.077       .  S
Fe595       O600   2.029       .  S
Fe595       O606   1.956       .  S
Fe596       O599   2.048       .  S
Fe596       O603   2.066       .  S
Fe596       O607   2.057   1_554  S
Fe596       O612   2.065   1_554  S
Fe596       O606   1.950   1_554  S
Fe597       O615   2.080       .  S
Fe597       O602   2.064       .  S
Fe597       O609   2.063       .  S
Fe597       O598   2.081       .  S
Fe597       O606   1.965       .  S
O598        C605   1.271       .  A
O599        C613   1.267       .  A
O600        C605   1.263       .  A
O601        C604   1.271       .  A
O602        C614   1.271       .  A
O603        C616   1.269       .  A
C604        O609   1.269       .  A
C604        C910   1.480       .  S
C605        C949   1.465       .  S
O607        C610   1.267       .  A
O608        C610   1.271       .  A
C610       C1822   1.481       .  S
O611        C616   1.265       .  A
O612        C614   1.269       .  A
C613        O615   1.270   1_554  A
C613        C862   1.467       .  S
C614        C886   1.483       .  S
C616        C982   1.472       .  S
Fe617       O633   2.067   1_655  S
Fe617       O623   2.036       .  S
Fe617       O630   2.051       .  S
Fe617       O622   2.063       .  S
Fe617       O628   1.970       .  S
Fe618       O621   2.066       .  S
Fe618       O625   2.057       .  S
Fe618       O629   2.074       .  S
Fe618       O634   2.056       .  S
Fe618       O628   1.965       .  S
Fe619       O637   2.064       .  S
Fe619       O624   2.065       .  S
Fe619       O631   2.077       .  S
Fe619       O620   2.063       .  S
Fe619       O628   1.976       .  S
O620        C627   1.266       .  A
O621        C635   1.269       .  A
O622        C627   1.267       .  A
O623        C626   1.266       .  A
O624        C636   1.270       .  A
O625        C638   1.264   1_655  A
C626        O631   1.271       .  A
C626        C781   1.459       .  S
C627        C829   1.473       .  S
O629        C632   1.273       .  A
O630        C632   1.267       .  A
C632        C805   1.478   1_655  S
O633        C638   1.268       .  A
O634        C636   1.269       .  A
C635        O637   1.269       .  A
C635       C2677   1.477       .  S
C636       C2950   1.478       .  S
C638        C877   1.485       .  S
Fe639       O655   2.062   1_655  S
Fe639       O645   2.043       .  S
Fe639       O652   2.049   1_655  S
Fe639       O644   2.051       .  S
Fe639       O650   1.980       .  S
Fe640       O643   2.062       .  S
Fe640       O647   2.067       .  S
Fe640       O651   2.064       .  S
Fe640       O656   2.061       .  S
Fe640       O650   1.973       .  S
Fe641       O659   2.079       .  S
Fe641       O646   2.053       .  S
Fe641       O653   2.055       .  S
Fe641       O642   2.077       .  S
Fe641       O650   1.981       .  S
O642        C649   1.270       .  A
O643        C657   1.269       .  A
O644        C649   1.266       .  A
O645        C648   1.266       .  A
O646        C658   1.265       .  A
O647        C660   1.268   1_655  A
C648        O653   1.266       .  A
C648        C757   1.476       .  S
C649        C838   1.476       .  S
O651        C654   1.269       .  A
O652        C654   1.265   1_455  A
C654        C733   1.476   1_655  S
O655        C660   1.269       .  A
O656        C658   1.270       .  A
C657        O659   1.272       .  A
C657       C1102   1.488       .  S
C658       C1246   1.477       .  S
C660       C1885   1.486       .  S
Fe661       O677   2.071       .  S
Fe661       O667   2.044       .  S
Fe661       O674   2.056       .  S
Fe661       O666   2.070       .  S
Fe661       O672   1.954       .  S
Fe662       O665   2.070       .  S
Fe662       O669   2.047       .  S
Fe662       O673   2.068       .  S
Fe662       O678   2.050       .  S
Fe662       O672   1.946       .  S
Fe663       O681   2.058       .  S
Fe663       O668   2.087       .  S
Fe663       O675   2.078       .  S
Fe663       O664   2.054       .  S
Fe663       O672   1.956       .  S
O664        C671   1.270       .  A
O665        C679   1.269       .  A
O666        C671   1.271       .  A
O667        C670   1.265       .  A
O668        C680   1.274       .  A
O669        C682   1.269       .  A
C670        O675   1.270       .  A
C670        C718   1.471       .  S
C671        C814   1.474       .  S
O673        C676   1.269   1_455  A
O674        C676   1.267   1_455  A
C676       C2965   1.481       .  S
O677        C682   1.270       .  A
O678        C680   1.269       .  A
C679        O681   1.266       .  A
C679        C853   1.472       .  S
C680        C934   1.486       .  S
C682        C790   1.463       .  S
Fe683       O699   2.063       .  S
Fe683       O689   2.052       .  S
Fe683       O696   2.066       .  S
Fe683       O688   2.048       .  S
Fe683       O694   1.978       .  S
Fe684       O687   2.056       .  S
Fe684       O691   2.044       .  S
Fe684       O695   2.057       .  S
Fe684       O700   2.048       .  S
Fe684       O694   1.976       .  S
Fe685       O703   2.063       .  S
Fe685       O690   2.071       .  S
Fe685       O697   2.071       .  S
Fe685       O686   2.057       .  S
Fe685       O694   1.986       .  S
O686        C693   1.266       .  A
O687        C701   1.267       .  A
O688        C693   1.267       .  A
O689        C692   1.267       .  A
O690        C702   1.270       .  A
O691        C704   1.266       .  A
C692        O697   1.269       .  A
C692        C709   1.481       .  S
C693        C742   1.469       .  S
O695        C698   1.265       .  A
O696        C698   1.268       .  A
C698       C1270   1.474   1_455  S
O699        C704   1.267       .  A
O700        C702   1.266       .  A
C701        O703   1.267       .  A
C701       C1861   1.476       .  S
C702       C2014   1.476       .  S
C704        C766   1.463       .  S
C705        C706   1.402       .  A
C705        C710   1.402   1_545  A
C705        H715   1.084       .  S
C706        C711   1.473       .  S
C706        C707   1.409   1_545  A
C707        C708   1.393       .  A
C707        S712   1.806   1_565  S
C708        C709   1.404       .  A
C708        H713   1.079       .  S
C709        C710   1.416       .  A
C710        S714   1.802       .  S
C711        C716   1.408       .  A
C711        C720   1.400       .  A
S712        H728   1.404       .  S
S714        H725   1.408       .  S
C716        C717   1.403       .  A
C716        S721   1.806       .  S
C717        C718   1.404       .  A
C717        H722   1.083       .  S
C718        C719   1.414       .  A
C719        C720   1.395       .  A
C719        S723   1.806       .  S
C720        H724   1.084       .  S
S721        H726   1.407       .  S
S723        H727   1.405       .  S
C729        C730   1.399       .  A
C729        C734   1.393   1_455  A
C729        H739   1.084   1_455  S
C730        C735   1.468       .  S
C730        C731   1.407       .  A
C731        C732   1.397       .  A
C731        S736   1.804       .  S
C732        C733   1.408       .  A
C732        H737   1.084       .  S
C733        C734   1.414   1_455  A
C734        S738   1.799       .  S
C735        C740   1.406   1_556  A
C735        C744   1.400       .  A
S736        H752   1.406       .  S
S738        H749   1.408       .  S
C740        C741   1.398       .  A
C740        S745   1.807   1_554  S
C741        C742   1.404       .  A
C741        H746   1.083       .  S
C742        C743   1.413       .  A
C743        C744   1.395   1_554  A
C743        S747   1.801       .  S
C744        H748   1.084       .  S
S745        H750   1.407   1_556  S
S747        H751   1.407       .  S
C753        C754   1.399       .  A
C753        C758   1.397       .  A
C753        H763   1.084       .  S
C754        C759   1.463       .  S
C754        C755   1.408   1_655  A
C755        C756   1.390       .  A
C755        S760   1.807       .  S
C756        C757   1.406   1_455  A
C756        H761   1.084       .  S
C757        C758   1.417       .  A
C758        S762   1.802       .  S
C759        C764   1.406       .  A
C759        C768   1.399   1_655  A
S760        H776   1.405       .  S
S762        H773   1.408       .  S
C764        C765   1.396   1_655  A
C764        S769   1.807       .  S
C765        C766   1.402       .  A
C765        H770   1.083   1_455  S
C766        C767   1.411       .  A
C767        C768   1.394       .  A
C767        S771   1.798       .  S
C768        H772   1.084       .  S
S769        H774   1.407       .  S
S771        H775   1.406       .  S
C777        C778   1.400       .  A
C777        C782   1.389   1_554  A
C777        H787   1.084   1_655  S
C778        C783   1.471       .  S
C778        C779   1.412       .  A
C779        C780   1.400   1_554  A
C779        S784   1.803       .  S
C780        C781   1.401       .  A
C780        H785   1.084       .  S
C781        C782   1.410       .  A
C782        S786   1.806       .  S
C783        C788   1.409   1_655  A
C783        C792   1.401       .  A
S784        H800   1.406       .  S
S786        H797   1.405       .  S
C788        C789   1.396       .  A
C788        S793   1.808       .  S
C789        C790   1.401       .  A
C789        H794   1.083       .  S
C790        C791   1.413   1_455  A
C791        C792   1.397       .  A
C791        S795   1.804       .  S
C792        H796   1.084       .  S
S793        H798   1.407       .  S
S795        H799   1.405       .  S
C801        C802   1.400       .  A
C801        C806   1.400       .  A
C801        H811   1.084       .  S
C802        C807   1.471       .  S
C802        C803   1.410       .  A
C803        C804   1.393   1_455  A
C803        S808   1.804   1_455  S
C804        C805   1.403   1_655  A
C804        H809   1.081       .  S
C805        C806   1.417       .  A
C806        S810   1.802       .  S
C807        C812   1.407       .  A
C807        C816   1.400       .  A
S808        H824   1.404       .  S
S810        H821   1.408       .  S
C812        C813   1.398       .  A
C812        S817   1.807       .  S
C813        C814   1.403       .  A
C813        H818   1.082       .  S
C814        C815   1.416       .  A
C815        C816   1.399       .  A
C815        S819   1.804       .  S
C816        H820   1.084       .  S
S817        H822   1.407       .  S
S819        H823   1.408       .  S
C825        C826   1.402       .  A
C825        C830   1.398       .  A
C825        H835   1.084       .  S
C826        C831   1.478       .  S
C826        C827   1.412       .  A
C827        C828   1.401       .  A
C827        S832   1.803       .  S
C828        C829   1.403       .  A
C828        H833   1.084       .  S
C829        C830   1.413       .  A
C830        S834   1.805       .  S
C831        C836   1.408       .  A
C831        C840   1.402   1_545  A
S832        H848   1.405       .  S
S834        H845   1.407       .  S
C836        C837   1.401   1_545  A
C836        S841   1.807       .  S
C837        C838   1.404       .  A
C837        H842   1.083       .  S
C838        C839   1.415       .  A
C839        C840   1.402       .  A
C839        S843   1.804       .  S
C840        H844   1.084       .  S
S841        H846   1.407       .  S
S843        H847   1.407       .  S
C849        C850   1.404       .  A
C849        C854   1.401       .  A
C849        H859   1.084       .  S
C850        C855   1.479       .  S
C850        C851   1.413       .  A
C851        C852   1.397       .  A
C851        S856   1.810       .  S
C852        C853   1.402       .  A
C852        H857   1.083       .  S
C853        C854   1.412       .  A
C854        S858   1.802       .  S
C855        C860   1.410       .  A
C855        C864   1.400       .  A
S856        H872   1.407       .  S
S858        H869   1.406       .  S
C860        C861   1.404       .  A
C860        S865   1.805       .  S
C861        C862   1.403       .  A
C861        H866   1.083       .  S
C862        C863   1.412       .  A
C863        C864   1.394       .  A
C863        S867   1.802   1_554  S
C864        H868   1.084       .  S
S865        H870   1.407       .  S
S867        H871   1.405       .  S
C873        C874   1.400       .  A
C873        C878   1.399       .  A
C873        H883   1.084       .  S
C874        C879   1.476       .  S
C874        C875   1.411       .  A
C875        C876   1.398       .  A
C875        S880   1.806       .  S
C876        C877   1.408       .  A
C876        H881   1.084       .  S
C877        C878   1.417       .  A
C878        S882   1.799       .  S
C879        C884   1.408       .  A
C879        C888   1.399       .  A
S880        H896   1.405       .  S
S882        H893   1.406   1_455  S
C884        C885   1.402       .  A
C884        S889   1.807       .  S
C885        C886   1.407       .  A
C885        H890   1.082       .  S
C886        C887   1.419       .  A
C887        C888   1.397       .  A
C887        S891   1.804       .  S
C888        H892   1.084       .  S
S889        H894   1.407       .  S
S891        H895   1.407       .  S
C897        C898   1.401       .  A
C897        C902   1.400       .  A
C897        H907   1.084   1_554  S
C898        C903   1.477   1_554  S
C898        C899   1.412       .  A
C899        C900   1.396       .  A
C899        S904   1.806       .  S
C900        C901   1.404       .  A
C900        H905   1.084       .  S
C901        C902   1.416       .  A
C902        S906   1.802       .  S
C903        C908   1.408       .  A
C903        C912   1.401   1_556  A
S904        H920   1.406       .  S
S906        H917   1.407   1_554  S
C908        C909   1.399       .  A
C908        S913   1.808       .  S
C909        C910   1.405       .  A
C909        H914   1.083       .  S
C910        C911   1.416   1_556  A
C911        C912   1.401       .  A
C911        S915   1.800       .  S
C912        H916   1.084       .  S
S913        H918   1.407       .  S
S915        H919   1.407   1_554  S
C921        C922   1.403       .  A
C921        C926   1.401       .  A
C921        H931   1.084       .  S
C922        C927   1.476       .  S
C922        C923   1.408       .  A
C923        C924   1.395       .  A
C923        S928   1.804       .  S
C924        C925   1.407       .  A
C924        H929   1.084       .  S
C925        C926   1.416       .  A
C926        S930   1.804       .  S
C927        C932   1.406       .  A
C927        C936   1.400       .  A
S928        H944   1.406       .  S
S930        H941   1.408       .  S
C932        C933   1.401       .  A
C932        S937   1.806       .  S
C933        C934   1.410       .  A
C933        H938   1.082       .  S
C934        C935   1.418       .  A
C935        C936   1.397       .  A
C935        S939   1.802       .  S
C936        H940   1.084       .  S
S937        H942   1.407       .  S
S939        H943   1.407       .  S
C945        C946   1.404       .  A
C945        C950   1.399       .  A
C945        H955   1.084       .  S
C946        C951   1.472       .  S
C946        C947   1.412       .  A
C947        C948   1.391       .  A
C947        S952   1.806       .  S
C948        C949   1.402       .  A
C948        H953   1.085       .  S
C949        C950   1.411       .  A
C950        S954   1.803       .  S
C951        C956   1.410       .  A
C951        C960   1.401       .  A
S952        H968   1.406       .  S
S954        H965   1.407       .  S
C956        C957   1.398       .  A
C956        S961   1.808       .  S
C957        C958   1.402       .  A
C957        H962   1.083       .  S
C958        C959   1.411       .  A
C959        C960   1.395       .  A
C959        S963   1.804       .  S
C960        H964   1.084       .  S
S961        H966   1.407       .  S
S963        H967   1.406       .  S
C969        C970   1.401       .  A
C969        C974   1.398       .  A
C969        H979   1.084       .  S
C970        C975   1.468       .  S
C970        C971   1.410       .  A
C971        C972   1.393       .  A
C971        S976   1.805       .  S
C972        C973   1.401       .  A
C972        H977   1.084       .  S
C973        C974   1.413       .  A
C974        S978   1.804       .  S
C975        C980   1.406       .  A
C975        C984   1.399       .  A
S976        H992   1.405       .  S
S978        H989   1.407       .  S
C980        C981   1.401       .  A
C980        S985   1.806       .  S
C981        C982   1.406       .  A
C981        H986   1.083       .  S
C982        C983   1.413       .  A
C983        C984   1.393       .  A
C983        S987   1.804       .  S
C984        H988   1.084       .  S
S985        H990   1.407       .  S
S987        H991   1.407       .  S
C993        C994   1.403       .  A
C993        C998   1.403       .  A
C993       H1003   1.083       .  S
C994        C999   1.484       .  S
C994        C995   1.413       .  A
C995        C996   1.397       .  A
C995       S1000   1.805       .  S
C996        C997   1.404       .  A
C996       H1001   1.084       .  S
C997        C998   1.415       .  A
C998       S1002   1.808       .  S
C999       C1004   1.410       .  A
C999       C1008   1.401       .  A
S1000      H1016   1.406       .  S
S1002      H1013   1.407       .  S
C1004      C1005   1.406       .  A
C1004      S1009   1.806       .  S
C1005      C1006   1.408       .  A
C1005      H1010   1.082       .  S
C1006      C1007   1.417       .  A
C1007      C1008   1.394       .  A
C1007      S1011   1.804       .  S
C1008      H1012   1.084       .  S
S1009      H1014   1.407       .  S
S1011      H1015   1.408       .  S
C1017      C1018   1.401       .  A
C1017      C1022   1.402       .  A
C1017      H1027   1.084       .  S
C1018      C1023   1.472       .  S
C1018      C1019   1.408       .  A
C1019      C1020   1.393       .  A
C1019      S1024   1.805       .  S
C1020      C1021   1.406       .  A
C1020      H1025   1.083       .  S
C1021      C1022   1.418       .  A
C1022      S1026   1.801       .  S
C1023      C1028   1.407       .  A
C1023      C1032   1.399       .  A
S1024      H1040   1.403       .  S
S1026      H1037   1.408       .  S
C1028      C1029   1.402       .  A
C1028      S1033   1.806       .  S
C1029      C1030   1.406       .  A
C1029      H1034   1.083       .  S
C1030      C1031   1.414       .  A
C1031      C1032   1.396       .  A
C1031      S1035   1.803       .  S
C1032      H1036   1.084       .  S
S1033      H1038   1.407       .  S
S1035      H1039   1.408       .  S
C1041      C1042   1.402       .  A
C1041      C1046   1.397       .  A
C1041      H1051   1.084       .  S
C1042      C1047   1.477       .  S
C1042      C1043   1.412       .  A
C1043      C1044   1.399       .  A
C1043      S1048   1.803       .  S
C1044      C1045   1.403       .  A
C1044      H1049   1.084       .  S
C1045      C1046   1.413       .  A
C1046      S1050   1.805       .  S
C1047      C1052   1.408       .  A
C1047      C1056   1.400       .  A
S1048      H1064   1.406       .  S
S1050      H1061   1.407       .  S
C1052      C1053   1.404       .  A
C1052      S1057   1.806       .  S
C1053      C1054   1.406       .  A
C1053      H1058   1.083       .  S
C1054      C1055   1.415       .  A
C1055      C1056   1.395       .  A
C1055      S1059   1.805       .  S
C1056      H1060   1.084       .  S
S1057      H1062   1.407       .  S
S1059      H1063   1.408       .  S
C1065      C1066   1.400       .  A
C1065      C1070   1.398       .  A
C1065      H1075   1.084       .  S
C1066      C1071   1.481       .  S
C1066      C1067   1.413       .  A
C1067      C1068   1.404       .  A
C1067      S1072   1.803       .  S
C1068      C1069   1.404       .  A
C1068      H1073   1.084       .  S
C1069      C1070   1.414       .  A
C1070      S1074   1.801       .  S
C1071      C1076   1.410       .  A
C1071      C1080   1.400       .  A
S1072      H1088   1.405       .  S
S1074      H1085   1.406       .  S
C1076      C1077   1.407       .  A
C1076      S1081   1.805       .  S
C1077      C1078   1.405       .  A
C1077      H1082   1.083       .  S
C1078      C1079   1.414       .  A
C1079      C1080   1.397       .  A
C1079      S1083   1.804       .  S
C1080      H1084   1.084       .  S
S1081      H1086   1.407       .  S
S1083      H1087   1.407       .  S
C1089      C1090   1.403       .  A
C1089      C1094   1.403       .  A
C1089      H1099   1.084       .  S
C1090      C1095   1.486       .  S
C1090      C1091   1.413       .  A
C1091      C1092   1.400       .  A
C1091      S1096   1.805       .  S
C1092      C1093   1.407       .  A
C1092      H1097   1.084       .  S
C1093      C1094   1.418       .  A
C1094      S1098   1.802       .  S
C1095      C1100   1.409       .  A
C1095      C1104   1.404       .  A
S1096      H1112   1.406       .  S
S1098      H1109   1.408       .  S
C1100      C1101   1.403       .  A
C1100      S1105   1.808       .  S
C1101      C1102   1.408       .  A
C1101      H1106   1.082       .  S
C1102      C1103   1.416       .  A
C1103      C1104   1.404       .  A
C1103      S1107   1.803       .  S
C1104      H1108   1.084       .  S
S1105      H1110   1.407       .  S
S1107      H1111   1.407       .  S
C1113      C1114   1.400       .  A
C1113      C1118   1.397       .  A
C1113      H1123   1.084       .  S
C1114      C1119   1.474       .  S
C1114      C1115   1.411       .  A
C1115      C1116   1.398       .  A
C1115      S1120   1.805       .  S
C1116      C1117   1.404       .  A
C1116      H1121   1.084       .  S
C1117      C1118   1.415       .  A
C1118      S1122   1.803       .  S
C1119      C1124   1.404       .  A
C1119      C1128   1.400       .  A
S1120      H1136   1.405       .  S
S1122      H1133   1.407       .  S
C1124      C1125   1.398       .  A
C1124      S1129   1.808       .  S
C1125      C1126   1.411       .  A
C1125      H1130   1.082       .  S
C1126      C1127   1.420       .  A
C1127      C1128   1.401       .  A
C1127      S1131   1.802       .  S
C1128      H1132   1.084       .  S
S1129      H1134   1.407       .  S
S1131      H1135   1.408       .  S
C1137      C1138   1.400       .  A
C1137      C1142   1.397       .  A
C1137      H1147   1.084       .  S
C1138      C1143   1.474       .  S
C1138      C1139   1.410       .  A
C1139      C1140   1.395       .  A
C1139      S1144   1.805       .  S
C1140      C1141   1.406       .  A
C1140      H1145   1.084       .  S
C1141      C1142   1.416       .  A
C1142      S1146   1.803       .  S
C1143      C1148   1.406       .  A
C1143      C1152   1.399       .  A
S1144      H1160   1.406       .  S
S1146      H1157   1.408       .  S
C1148      C1149   1.402       .  A
C1148      S1153   1.806       .  S
C1149      C1150   1.409       .  A
C1149      H1154   1.083       .  S
C1150      C1151   1.419       .  A
C1151      C1152   1.396       .  A
C1151      S1155   1.810       .  S
C1152      H1156   1.083       .  S
S1153      H1158   1.407       .  S
S1155      H1159   1.407       .  S
C1161      C1162   1.400       .  A
C1161      C1166   1.396       .  A
C1161      H1171   1.084       .  S
C1162      C1167   1.465       .  S
C1162      C1163   1.407       .  A
C1163      C1164   1.393       .  A
C1163      S1168   1.804       .  S
C1164      C1165   1.404       .  A
C1164      H1169   1.084       .  S
C1165      C1166   1.415       .  A
C1166      S1170   1.804       .  S
C1167      C1172   1.407       .  A
C1167      C1176   1.399       .  A
S1168      H1184   1.405       .  S
S1170      H1181   1.408       .  S
C1172      C1173   1.395       .  A
C1172      S1177   1.809       .  S
C1173      C1174   1.403       .  A
C1173      H1178   1.081       .  S
C1174      C1175   1.415       .  A
C1175      C1176   1.397       .  A
C1175      S1179   1.802       .  S
C1176      H1180   1.084       .  S
S1177      H1182   1.406       .  S
S1179      H1183   1.407       .  S
C1185      C1186   1.399       .  A
C1185      C1190   1.396       .  A
C1185      H1195   1.084       .  S
C1186      C1191   1.465       .  S
C1186      C1187   1.408       .  A
C1187      C1188   1.391       .  A
C1187      S1192   1.807       .  S
C1188      C1189   1.406       .  A
C1188      H1193   1.084       .  S
C1189      C1190   1.416       .  A
C1190      S1194   1.800       .  S
C1191      C1196   1.404       .  A
C1191      C1200   1.397       .  A
S1192      H1208   1.405       .  S
S1194      H1205   1.404       .  S
C1196      C1197   1.399       .  A
C1196      S1201   1.806       .  S
C1197      C1198   1.407       .  A
C1197      H1202   1.081       .  S
C1198      C1199   1.419       .  A
C1199      C1200   1.392       .  A
C1199      S1203   1.804       .  S
C1200      H1204   1.084       .  S
S1201      H1206   1.406       .  S
S1203      H1207   1.401       .  S
C1209      C1210   1.403   1_556  A
C1209      C1214   1.401       .  A
C1209      H1219   1.084       .  S
C1210      C1215   1.483       .  S
C1210      C1211   1.412       .  A
C1211      C1212   1.400       .  A
C1211      S1216   1.805       .  S
C1212      C1213   1.406       .  A
C1212      H1217   1.084       .  S
C1213      C1214   1.416   1_554  A
C1214      S1218   1.802       .  S
C1215      C1220   1.409       .  A
C1215      C1224   1.402       .  A
S1216      H1232   1.405       .  S
S1218      H1229   1.407       .  S
C1220      C1221   1.401       .  A
C1220      S1225   1.808   1_554  S
C1221      C1222   1.406       .  A
C1221      H1226   1.079   1_554  S
C1222      C1223   1.418       .  A
C1223      C1224   1.403       .  A
C1223      S1227   1.802       .  S
C1224      H1228   1.084       .  S
S1225      H1230   1.407       .  S
S1227      H1231   1.408       .  S
C1233      C1234   1.401       .  A
C1233      C1238   1.392       .  A
C1233      H1243   1.084       .  S
C1234      C1239   1.473       .  S
C1234      C1235   1.410       .  A
C1235      C1236   1.400       .  A
C1235      S1240   1.803       .  S
C1236      C1237   1.405       .  A
C1236      H1241   1.084   1_556  S
C1237      C1238   1.411       .  A
C1238      S1242   1.805       .  S
C1239      C1244   1.410       .  A
C1239      C1248   1.401       .  A
S1240      H1256   1.406       .  S
S1242      H1253   1.407       .  S
C1244      C1245   1.396       .  A
C1244      S1249   1.810       .  S
C1245      C1246   1.402       .  A
C1245      H1250   1.079       .  S
C1246      C1247   1.417       .  A
C1247      C1248   1.399       .  A
C1247      S1251   1.802       .  S
C1248      H1252   1.084       .  S
S1249      H1254   1.407       .  S
S1251      H1255   1.408       .  S
C1257      C1258   1.402       .  A
C1257      C1262   1.399       .  A
C1257      H1267   1.084       .  S
C1258      C1263   1.480       .  S
C1258      C1259   1.411       .  A
C1259      C1260   1.400       .  A
C1259      S1264   1.804       .  S
C1260      C1261   1.407       .  A
C1260      H1265   1.084       .  S
C1261      C1262   1.416       .  A
C1262      S1266   1.803       .  S
C1263      C1268   1.411       .  A
C1263      C1272   1.401       .  A
S1264      H1280   1.406       .  S
S1266      H1277   1.407       .  S
C1268      C1269   1.403       .  A
C1268      S1273   1.807       .  S
C1269      C1270   1.403       .  A
C1269      H1274   1.083       .  S
C1270      C1271   1.413       .  A
C1271      C1272   1.399       .  A
C1271      S1275   1.800       .  S
C1272      H1276   1.084       .  S
S1273      H1278   1.407       .  S
S1275      H1279   1.406   1_655  S
C1281      C1282   1.405       .  A
C1281      C1286   1.401       .  A
C1281      H1291   1.084       .  S
C1282      C1287   1.484       .  S
C1282      C1283   1.411       .  A
C1283      C1284   1.398       .  A
C1283      S1288   1.804       .  S
C1284      C1285   1.407       .  A
C1284      H1289   1.084       .  S
C1285      C1286   1.414       .  A
C1286      S1290   1.804       .  S
C1287      C1292   1.409       .  A
C1287      C1296   1.402       .  A
S1288      H1304   1.406       .  S
S1290      H1301   1.407       .  S
C1292      C1293   1.402       .  A
C1292      S1297   1.807       .  S
C1293      C1294   1.407       .  A
C1293      H1298   1.082       .  S
C1294      C1295   1.418       .  A
C1295      C1296   1.400       .  A
C1295      S1299   1.804       .  S
C1296      H1300   1.084       .  S
S1297      H1302   1.406       .  S
S1299      H1303   1.408       .  S
C1305      C1306   1.402       .  A
C1305      C1310   1.400       .  A
C1305      H1315   1.084       .  S
C1306      C1311   1.479       .  S
C1306      C1307   1.409       .  A
C1307      C1308   1.397       .  A
C1307      S1312   1.805       .  S
C1308      C1309   1.408       .  A
C1308      H1313   1.084       .  S
C1309      C1310   1.416       .  A
C1310      S1314   1.799       .  S
C1311      C1316   1.408       .  A
C1311      C1320   1.403       .  A
S1312      H1328   1.406       .  S
S1314      H1325   1.404       .  S
C1316      C1317   1.401       .  A
C1316      S1321   1.807       .  S
C1317      C1318   1.406       .  A
C1317      H1322   1.083       .  S
C1318      C1319   1.415       .  A
C1319      C1320   1.399       .  A
C1319      S1323   1.804       .  S
C1320      H1324   1.084       .  S
S1321      H1326   1.407       .  S
S1323      H1327   1.407       .  S
C1329      C1330   1.402       .  A
C1329      C1334   1.398       .  A
C1329      H1339   1.083       .  S
C1330      C1335   1.478       .  S
C1330      C1331   1.411       .  A
C1331      C1332   1.400       .  A
C1331      S1336   1.803       .  S
C1332      C1333   1.404       .  A
C1332      H1337   1.084       .  S
C1333      C1334   1.411       .  A
C1334      S1338   1.807       .  S
C1335      C1340   1.409       .  A
C1335      C1344   1.402       .  A
S1336      H1352   1.407       .  S
S1338      H1349   1.407       .  S
C1340      C1341   1.402       .  A
C1340      S1345   1.806       .  S
C1341      C1342   1.404       .  A
C1341      H1346   1.083   1_556  S
C1342      C1343   1.412       .  A
C1343      C1344   1.395       .  A
C1343      S1347   1.805       .  S
C1344      H1348   1.084       .  S
S1345      H1350   1.407   1_556  S
S1347      H1351   1.407       .  S
C1353      C1354   1.404       .  A
C1353      C1358   1.401   1_545  A
C1353      H1363   1.084       .  S
C1354      C1359   1.480       .  S
C1354      C1355   1.413   1_545  A
C1355      C1356   1.398       .  A
C1355      S1360   1.806   1_565  S
C1356      C1357   1.405       .  A
C1356      H1361   1.084       .  S
C1357      C1358   1.414       .  A
C1358      S1362   1.802       .  S
C1359      C1364   1.410       .  A
C1359      C1368   1.399       .  A
S1360      H1376   1.405       .  S
S1362      H1373   1.407       .  S
C1364      C1365   1.407       .  A
C1364      S1369   1.805       .  S
C1365      C1366   1.405       .  A
C1365      H1370   1.083       .  S
C1366      C1367   1.415       .  A
C1367      C1368   1.397       .  A
C1367      S1371   1.810       .  S
C1368      H1372   1.083       .  S
S1369      H1374   1.407       .  S
S1371      H1375   1.406       .  S
C1377      C1378   1.402       .  A
C1377      C1382   1.397       .  A
C1377      H1387   1.084       .  S
C1378      C1383   1.478       .  S
C1378      C1379   1.411       .  A
C1379      C1380   1.400       .  A
C1379      S1384   1.804       .  S
C1380      C1381   1.407       .  A
C1380      H1385   1.084       .  S
C1381      C1382   1.415       .  A
C1382      S1386   1.804       .  S
C1383      C1388   1.408       .  A
C1383      C1392   1.400       .  A
S1384      H1400   1.405       .  S
S1386      H1397   1.407       .  S
C1388      C1389   1.402       .  A
C1388      S1393   1.806       .  S
C1389      C1390   1.406       .  A
C1389      H1394   1.082       .  S
C1390      C1391   1.418       .  A
C1391      C1392   1.399       .  A
C1391      S1395   1.804       .  S
C1392      H1396   1.084       .  S
S1393      H1398   1.407       .  S
S1395      H1399   1.408       .  S
C1401      C1402   1.402       .  A
C1401      C1406   1.394       .  A
C1401      H1411   1.084       .  S
C1402      C1407   1.478       .  S
C1402      C1403   1.414       .  A
C1403      C1404   1.400       .  A
C1403      S1408   1.803       .  S
C1404      C1405   1.400       .  A
C1404      H1409   1.084       .  S
C1405      C1406   1.410       .  A
C1406      S1410   1.804       .  S
C1407      C1412   1.411       .  A
C1407      C1416   1.400       .  A
S1408      H1424   1.406       .  S
S1410      H1421   1.406       .  S
C1412      C1413   1.405       .  A
C1412      S1417   1.805       .  S
C1413      C1414   1.403       .  A
C1413      H1418   1.083       .  S
C1414      C1415   1.413       .  A
C1415      C1416   1.392       .  A
C1415      S1419   1.803       .  S
C1416      H1420   1.084       .  S
S1417      H1422   1.407       .  S
S1419      H1423   1.404   1_554  S
C1425      C1426   1.401       .  A
C1425      C1430   1.398   1_554  A
C1425      H1435   1.084       .  S
C1426      C1431   1.470       .  S
C1426      C1427   1.410       .  A
C1427      C1428   1.394       .  A
C1427      S1432   1.805       .  S
C1428      C1429   1.403   1_554  A
C1428      H1433   1.084   1_554  S
C1429      C1430   1.414       .  A
C1430      S1434   1.804       .  S
C1431      C1436   1.408       .  A
C1431      C1440   1.397       .  A
S1432      H1448   1.406       .  S
S1434      H1445   1.407       .  S
C1436      C1437   1.401       .  A
C1436      S1441   1.807       .  S
C1437      C1438   1.405       .  A
C1437      H1442   1.083       .  S
C1438      C1439   1.417       .  A
C1439      C1440   1.394       .  A
C1439      S1443   1.805       .  S
C1440      H1444   1.084       .  S
S1441      H1446   1.407       .  S
S1443      H1447   1.405       .  S
C1449      C1450   1.401       .  A
C1449      C1454   1.397       .  A
C1449      H1459   1.084       .  S
C1450      C1455   1.472       .  S
C1450      C1451   1.412       .  A
C1451      C1452   1.394       .  A
C1451      S1456   1.806       .  S
C1452      C1453   1.403       .  A
C1452      H1457   1.084       .  S
C1453      C1454   1.414       .  A
C1454      S1458   1.804       .  S
C1455      C1460   1.406       .  A
C1455      C1464   1.401       .  A
S1456      H1472   1.405       .  S
S1458      H1469   1.407       .  S
C1460      C1461   1.398       .  A
C1460      S1465   1.807       .  S
C1461      C1462   1.407       .  A
C1461      H1466   1.083       .  S
C1462      C1463   1.414       .  A
C1463      C1464   1.400       .  A
C1463      S1467   1.810       .  S
C1464      H1468   1.083       .  S
S1465      H1470   1.407       .  S
S1467      H1471   1.407       .  S
C1473      C1474   1.404       .  A
C1473      C1478   1.400       .  A
C1473      H1483   1.084       .  S
C1474      C1479   1.481       .  S
C1474      C1475   1.413       .  A
C1475      C1476   1.399       .  A
C1475      S1480   1.805       .  S
C1476      C1477   1.404       .  A
C1476      H1481   1.084       .  S
C1477      C1478   1.412       .  A
C1478      S1482   1.804       .  S
C1479      C1484   1.411       .  A
C1479      C1488   1.401       .  A
S1480      H1496   1.406       .  S
S1482      H1493   1.407       .  S
C1484      C1485   1.404       .  A
C1484      S1489   1.806       .  S
C1485      C1486   1.404       .  A
C1485      H1490   1.082       .  S
C1486      C1487   1.414       .  A
C1487      C1488   1.398       .  A
C1487      S1491   1.802       .  S
C1488      H1492   1.084       .  S
S1489      H1494   1.407       .  S
S1491      H1495   1.406       .  S
C1497      C1498   1.402       .  A
C1497      C1502   1.398       .  A
C1497      H1507   1.084       .  S
C1498      C1503   1.469       .  S
C1498      C1499   1.410       .  A
C1499      C1500   1.392       .  A
C1499      S1504   1.804       .  S
C1500      C1501   1.400       .  A
C1500      H1505   1.083       .  S
C1501      C1502   1.412       .  A
C1502      S1506   1.804       .  S
C1503      C1508   1.408   1_556  A
C1503      C1512   1.398   1_556  A
S1504      H1520   1.406       .  S
S1506      H1517   1.407       .  S
C1508      C1509   1.405       .  A
C1508      S1513   1.804   1_554  S
C1509      C1510   1.403       .  A
C1509      H1514   1.083       .  S
C1510      C1511   1.411       .  A
C1511      C1512   1.388       .  A
C1511      S1515   1.806       .  S
C1512      H1516   1.085   1_554  S
S1513      H1518   1.407   1_556  S
S1515      H1519   1.406       .  S
C1521      C1522   1.397       .  A
C1521      C1526   1.395       .  A
C1521      H1531   1.084       .  S
C1522      C1527   1.467       .  S
C1522      C1523   1.409       .  A
C1523      C1524   1.393       .  A
C1523      S1528   1.805       .  S
C1524      C1525   1.405       .  A
C1524      H1529   1.084       .  S
C1525      C1526   1.420       .  A
C1526      S1530   1.804       .  S
C1527      C1532   1.406       .  A
C1527      C1536   1.399       .  A
S1528      H1544   1.405       .  S
S1530      H1541   1.404       .  S
C1532      C1533   1.397       .  A
C1532      S1537   1.807       .  S
C1533      C1534   1.403       .  A
C1533      H1538   1.078       .  S
C1534      C1535   1.415       .  A
C1535      C1536   1.396       .  A
C1535      S1539   1.804       .  S
C1536      H1540   1.084       .  S
S1537      H1542   1.407       .  S
S1539      H1543   1.408       .  S
C1545      C1546   1.402       .  A
C1545      C1550   1.398       .  A
C1545      H1555   1.084       .  S
C1546      C1551   1.484       .  S
C1546      C1547   1.414       .  A
C1547      C1548   1.404       .  A
C1547      S1552   1.803       .  S
C1548      C1549   1.404       .  A
C1548      H1553   1.084       .  S
C1549      C1550   1.414       .  A
C1550      S1554   1.803       .  S
C1551      C1556   1.412       .  A
C1551      C1560   1.402   1_545  A
S1552      H1568   1.406       .  S
S1554      H1565   1.407       .  S
C1556      C1557   1.406   1_545  A
C1556      S1561   1.806       .  S
C1557      C1558   1.404       .  A
C1557      H1562   1.083       .  S
C1558      C1559   1.414       .  A
C1559      C1560   1.399       .  A
C1559      S1563   1.806       .  S
C1560      H1564   1.084   1_565  S
S1561      H1566   1.407       .  S
S1563      H1567   1.407       .  S
C1569      C1570   1.402       .  A
C1569      C1574   1.400       .  A
C1569      H1579   1.084       .  S
C1570      C1575   1.480       .  S
C1570      C1571   1.412       .  A
C1571      C1572   1.398       .  A
C1571      S1576   1.805       .  S
C1572      C1573   1.405       .  A
C1572      H1577   1.084       .  S
C1573      C1574   1.415       .  A
C1574      S1578   1.804       .  S
C1575      C1580   1.410       .  A
C1575      C1584   1.401       .  A
S1576      H1592   1.406       .  S
S1578      H1589   1.408       .  S
C1580      C1581   1.402       .  A
C1580      S1585   1.808       .  S
C1581      C1582   1.406       .  A
C1581      H1586   1.083       .  S
C1582      C1583   1.417       .  A
C1583      C1584   1.400       .  A
C1583      S1587   1.800   1_554  S
C1584      H1588   1.084       .  S
S1585      H1590   1.406       .  S
S1587      H1591   1.407   1_556  S
C1593      C1594   1.404       .  A
C1593      C1598   1.396       .  A
C1593      H1603   1.084       .  S
C1594      C1599   1.481       .  S
C1594      C1595   1.411       .  A
C1595      C1596   1.399       .  A
C1595      S1600   1.804       .  S
C1596      C1597   1.406       .  A
C1596      H1601   1.084       .  S
C1597      C1598   1.412       .  A
C1598      S1602   1.802       .  S
C1599      C1604   1.410       .  A
C1599      C1608   1.403       .  A
S1600      H1616   1.407       .  S
S1602      H1613   1.407       .  S
C1604      C1605   1.403       .  A
C1604      S1609   1.806       .  S
C1605      C1606   1.404       .  A
C1605      H1610   1.083       .  S
C1606      C1607   1.413       .  A
C1607      C1608   1.398       .  A
C1607      S1611   1.810       .  S
C1608      H1612   1.083       .  S
S1609      H1614   1.407       .  S
S1611      H1615   1.407       .  S
C1617      C1618   1.402       .  A
C1617      C1622   1.399       .  A
C1617      H1627   1.084       .  S
C1618      C1623   1.473       .  S
C1618      C1619   1.410       .  A
C1619      C1620   1.393       .  A
C1619      S1624   1.805       .  S
C1620      C1621   1.402       .  A
C1620      H1625   1.085       .  S
C1621      C1622   1.414       .  A
C1622      S1626   1.808       .  S
C1623      C1628   1.405       .  A
C1623      C1632   1.399       .  A
S1624      H1640   1.406       .  S
S1626      H1637   1.399       .  S
C1628      C1629   1.401       .  A
C1628      S1633   1.806       .  S
C1629      C1630   1.409       .  A
C1629      H1634   1.082       .  S
C1630      C1631   1.419       .  A
C1631      C1632   1.396       .  A
C1631      S1635   1.811       .  S
C1632      H1636   1.083       .  S
S1633      H1638   1.407       .  S
S1635      H1639   1.407   1_655  S
C1641      C1642   1.401       .  A
C1641      C1646   1.395       .  A
C1641      H1651   1.084       .  S
C1642      C1647   1.477       .  S
C1642      C1643   1.411       .  A
C1643      C1644   1.397       .  A
C1643      S1648   1.805       .  S
C1644      C1645   1.406       .  A
C1644      H1649   1.083       .  S
C1645      C1646   1.418       .  A
C1646      S1650   1.803   1_455  S
C1647      C1652   1.408       .  A
C1647      C1656   1.404       .  A
S1648      H1664   1.406       .  S
S1650      H1661   1.408       .  S
C1652      C1653   1.396       .  A
C1652      S1657   1.809       .  S
C1653      C1654   1.406       .  A
C1653      H1658   1.082       .  S
C1654      C1655   1.414       .  A
C1655      C1656   1.399       .  A
C1655      S1659   1.802       .  S
C1656      H1660   1.084       .  S
S1657      H1662   1.407       .  S
S1659      H1663   1.406       .  S
C1665      C1666   1.403       .  A
C1665      C1670   1.403       .  A
C1665      H1675   1.084       .  S
C1666      C1671   1.484       .  S
C1666      C1667   1.410       .  A
C1667      C1668   1.397       .  A
C1667      S1672   1.805       .  S
C1668      C1669   1.409       .  A
C1668      H1673   1.083       .  S
C1669      C1670   1.419       .  A
C1670      S1674   1.800       .  S
C1671      C1676   1.407       .  A
C1671      C1680   1.402       .  A
S1672      H1688   1.406       .  S
S1674      H1685   1.408       .  S
C1676      C1677   1.404       .  A
C1676      S1681   1.807       .  S
C1677      C1678   1.412       .  A
C1677      H1682   1.082       .  S
C1678      C1679   1.420       .  A
C1679      C1680   1.400       .  A
C1679      S1683   1.800       .  S
C1680      H1684   1.084       .  S
S1681      H1686   1.407       .  S
S1683      H1687   1.408       .  S
C1689      C1690   1.400       .  A
C1689      C1694   1.399       .  A
C1689      H1699   1.084       .  S
C1690      C1695   1.467       .  S
C1690      C1691   1.407       .  A
C1691      C1692   1.390       .  A
C1691      S1696   1.805   1_455  S
C1692      C1693   1.405       .  A
C1692      H1697   1.083       .  S
C1693      C1694   1.417       .  A
C1694      S1698   1.803       .  S
C1695      C1700   1.406       .  A
C1695      C1704   1.398       .  A
S1696      H1712   1.404       .  S
S1698      H1709   1.408       .  S
C1700      C1701   1.397       .  A
C1700      S1705   1.808       .  S
C1701      C1702   1.404       .  A
C1701      H1706   1.083       .  S
C1702      C1703   1.418       .  A
C1703      C1704   1.397       .  A
C1703      S1707   1.803       .  S
C1704      H1708   1.084       .  S
S1705      H1710   1.407       .  S
S1707      H1711   1.407   1_455  S
C1713      C1714   1.400       .  A
C1713      C1718   1.397   1_655  A
C1713      H1723   1.084       .  S
C1714      C1719   1.475       .  S
C1714      C1715   1.412   1_655  A
C1715      C1716   1.397       .  A
C1715      S1720   1.806       .  S
C1716      C1717   1.406       .  A
C1716      H1721   1.084       .  S
C1717      C1718   1.419       .  A
C1718      S1722   1.803       .  S
C1719      C1724   1.409       .  A
C1719      C1728   1.398   1_556  A
S1720      H1736   1.406   1_556  S
S1722      H1733   1.408       .  S
C1724      C1725   1.403   1_556  A
C1724      S1729   1.806       .  S
C1725      C1726   1.406       .  A
C1725      H1730   1.083       .  S
C1726      C1727   1.417       .  A
C1727      C1728   1.393       .  A
C1727      S1731   1.805   1_655  S
C1728      H1732   1.084   1_654  S
S1729      H1734   1.407       .  S
S1731      H1735   1.408   1_455  S
C1737      C1738   1.397       .  A
C1737      C1742   1.402   1_554  A
C1737      H1747   1.083   1_455  S
C1738      C1743   1.475       .  S
C1738      C1739   1.408       .  A
C1739      C1740   1.395   1_554  A
C1739      S1744   1.804       .  S
C1740      C1741   1.408       .  A
C1740      H1745   1.083       .  S
C1741      C1742   1.425       .  A
C1742      S1746   1.812       .  S
C1743      C1748   1.408       .  A
C1743      C1752   1.399       .  A
S1744      H1760   1.406       .  S
S1746      H1757   1.407   1_455  S
C1748      C1749   1.404       .  A
C1748      S1753   1.806       .  S
C1749      C1750   1.407   1_455  A
C1749      H1754   1.083       .  S
C1750      C1751   1.417   1_655  A
C1751      C1752   1.392       .  A
C1751      S1755   1.804   1_455  S
C1752      H1756   1.084       .  S
S1753      H1758   1.407       .  S
S1755      H1759   1.408   1_655  S
C1761      C1762   1.400       .  A
C1761      C1766   1.399       .  A
C1761      H1771   1.084   1_655  S
C1762      C1767   1.477       .  S
C1762      C1763   1.411       .  A
C1763      C1764   1.398       .  A
C1763      S1768   1.804       .  S
C1764      C1765   1.404       .  A
C1764      H1769   1.082       .  S
C1765      C1766   1.419       .  A
C1766      S1770   1.804       .  S
C1767      C1772   1.409   1_655  A
C1767      C1776   1.398       .  A
S1768      H1784   1.406       .  S
S1770      H1781   1.407       .  S
C1772      C1773   1.403       .  A
C1772      S1777   1.807       .  S
C1773      C1774   1.406       .  A
C1773      H1778   1.083       .  S
C1774      C1775   1.419   1_455  A
C1775      C1776   1.397       .  A
C1775      S1779   1.803       .  S
C1776      H1780   1.084       .  S
S1777      H1782   1.407       .  S
S1779      H1783   1.408       .  S
C1785      C1786   1.405       .  A
C1785      C1790   1.401       .  A
C1785      H1795   1.084       .  S
C1786      C1791   1.483       .  S
C1786      C1787   1.415       .  A
C1787      C1788   1.401       .  A
C1787      S1792   1.805       .  S
C1788      C1789   1.402       .  A
C1788      H1793   1.084       .  S
C1789      C1790   1.411       .  A
C1790      S1794   1.804       .  S
C1791      C1796   1.412       .  A
C1791      C1800   1.400       .  A
S1792      H1808   1.405       .  S
S1794      H1805   1.405       .  S
C1796      C1797   1.410       .  A
C1796      S1801   1.805       .  S
C1797      C1798   1.406       .  A
C1797      H1802   1.083       .  S
C1798      C1799   1.412       .  A
C1799      C1800   1.394       .  A
C1799      S1803   1.803       .  S
C1800      H1804   1.084       .  S
S1801      H1806   1.407       .  S
S1803      H1807   1.407       .  S
C1809      C1810   1.401       .  A
C1809      C1814   1.405       .  A
C1809      H1819   1.083       .  S
C1810      C1815   1.479       .  S
C1810      C1811   1.409       .  A
C1811      C1812   1.399       .  A
C1811      S1816   1.805       .  S
C1812      C1813   1.409       .  A
C1812      H1817   1.084       .  S
C1813      C1814   1.418       .  A
C1814      S1818   1.809       .  S
C1815      C1820   1.409       .  A
C1815      C1824   1.401       .  A
S1816      H1832   1.405       .  S
S1818      H1829   1.407       .  S
C1820      C1821   1.402       .  A
C1820      S1825   1.807       .  S
C1821      C1822   1.406       .  A
C1821      H1826   1.083       .  S
C1822      C1823   1.416       .  A
C1823      C1824   1.401       .  A
C1823      S1827   1.803   1_556  S
C1824      H1828   1.084       .  S
S1825      H1830   1.407       .  S
S1827      H1831   1.407       .  S
C1833      C1834   1.402       .  A
C1833      C1838   1.393       .  A
C1833      H1843   1.084       .  S
C1834      C1839   1.478       .  S
C1834      C1835   1.414       .  A
C1835      C1836   1.401       .  A
C1835      S1840   1.803       .  S
C1836      C1837   1.402       .  A
C1836      H1841   1.083       .  S
C1837      C1838   1.412       .  A
C1838      S1842   1.805       .  S
C1839      C1844   1.412       .  A
C1839      C1848   1.402       .  A
S1840      H1856   1.406       .  S
S1842      H1853   1.406       .  S
C1844      C1845   1.403       .  A
C1844      S1849   1.806       .  S
C1845      C1846   1.401       .  A
C1845      H1850   1.083       .  S
C1846      C1847   1.410       .  A
C1847      C1848   1.394       .  A
C1847      S1851   1.805       .  S
C1848      H1852   1.084       .  S
S1849      H1854   1.407       .  S
S1851      H1855   1.406       .  S
C1857      C1858   1.403       .  A
C1857      C1862   1.398       .  A
C1857      H1867   1.084       .  S
C1858      C1863   1.477       .  S
C1858      C1859   1.410       .  A
C1859      C1860   1.399       .  A
C1859      S1864   1.803       .  S
C1860      C1861   1.405       .  A
C1860      H1865   1.084       .  S
C1861      C1862   1.414       .  A
C1862      S1866   1.805       .  S
C1863      C1868   1.406       .  A
C1863      C1872   1.399       .  A
S1864      H1880   1.407       .  S
S1866      H1877   1.407       .  S
C1868      C1869   1.405       .  A
C1868      S1873   1.804       .  S
C1869      C1870   1.408       .  A
C1869      H1874   1.083       .  S
C1870      C1871   1.416       .  A
C1871      C1872   1.397       .  A
C1871      S1875   1.809       .  S
C1872      H1876   1.083       .  S
S1873      H1878   1.407       .  S
S1875      H1879   1.406       .  S
C1881      C1882   1.402       .  A
C1881      C1886   1.401       .  A
C1881      H1891   1.084       .  S
C1882      C1887   1.483       .  S
C1882      C1883   1.413       .  A
C1883      C1884   1.398       .  A
C1883      S1888   1.805       .  S
C1884      C1885   1.406       .  A
C1884      H1889   1.084       .  S
C1885      C1886   1.418       .  A
C1886      S1890   1.803       .  S
C1887      C1892   1.410       .  A
C1887      C1896   1.401       .  A
S1888      H1904   1.406       .  S
S1890      H1901   1.408       .  S
C1892      C1893   1.403       .  A
C1892      S1897   1.807       .  S
C1893      C1894   1.406       .  A
C1893      H1898   1.083       .  S
C1894      C1895   1.417       .  A
C1895      C1896   1.398       .  A
C1895      S1899   1.803       .  S
C1896      H1900   1.084       .  S
S1897      H1902   1.407       .  S
S1899      H1903   1.408       .  S
C1905      C1906   1.401       .  A
C1905      C1910   1.397       .  A
C1905      H1915   1.084       .  S
C1906      C1911   1.482       .  S
C1906      C1907   1.413       .  A
C1907      C1908   1.400       .  A
C1907      S1912   1.804       .  S
C1908      C1909   1.406       .  A
C1908      H1913   1.084       .  S
C1909      C1910   1.417       .  A
C1910      S1914   1.802       .  S
C1911      C1916   1.409       .  A
C1911      C1920   1.404       .  A
S1912      H1928   1.406       .  S
S1914      H1925   1.407       .  S
C1916      C1917   1.399       .  A
C1916      S1921   1.808       .  S
C1917      C1918   1.407       .  A
C1917      H1922   1.082       .  S
C1918      C1919   1.414       .  A
C1919      C1920   1.401       .  A
C1919      S1923   1.803       .  S
C1920      H1924   1.084       .  S
S1921      H1926   1.407       .  S
S1923      H1927   1.407       .  S
C1929      C1930   1.400       .  A
C1929      C1934   1.395       .  A
C1929      H1939   1.083       .  S
C1930      C1935   1.479       .  S
C1930      C1931   1.415       .  A
C1931      C1932   1.403       .  A
C1931      S1936   1.803       .  S
C1932      C1933   1.402       .  A
C1932      H1937   1.084       .  S
C1933      C1934   1.409       .  A
C1934      S1938   1.808       .  S
C1935      C1940   1.411       .  A
C1935      C1944   1.405       .  A
S1936      H1952   1.405       .  S
S1938      H1949   1.407       .  S
C1940      C1941   1.399       .  A
C1940      S1945   1.809       .  S
C1941      C1942   1.402       .  A
C1941      H1946   1.084       .  S
C1942      C1943   1.410       .  A
C1943      C1944   1.401       .  A
C1943      S1947   1.803       .  S
C1944      H1948   1.084       .  S
S1945      H1950   1.407       .  S
S1947      H1951   1.403       .  S
C1953      C1954   1.399       .  A
C1953      C1958   1.398       .  A
C1953      H1963   1.084       .  S
C1954      C1959   1.477       .  S
C1954      C1955   1.412       .  A
C1955      C1956   1.399       .  A
C1955      S1960   1.805       .  S
C1956      C1957   1.404       .  A
C1956      H1961   1.084       .  S
C1957      C1958   1.419       .  A
C1958      S1962   1.804       .  S
C1959      C1964   1.407       .  A
C1959      C1968   1.400       .  A
S1960      H1976   1.405       .  S
S1962      H1973   1.405       .  S
C1964      C1965   1.401       .  A
C1964      S1969   1.807       .  S
C1965      C1966   1.407       .  A
C1965      H1970   1.082       .  S
C1966      C1967   1.418       .  A
C1967      C1968   1.399       .  A
C1967      S1971   1.804       .  S
C1968      H1972   1.084       .  S
S1969      H1974   1.407       .  S
S1971      H1975   1.408       .  S
C1977      C1978   1.400       .  A
C1977      C1982   1.396       .  A
C1977      H1987   1.084       .  S
C1978      C1983   1.480       .  S
C1978      C1979   1.411       .  A
C1979      C1980   1.403       .  A
C1979      S1984   1.803       .  S
C1980      C1981   1.408       .  A
C1980      H1985   1.084       .  S
C1981      C1982   1.418       .  A
C1982      S1986   1.803       .  S
C1983      C1988   1.410       .  A
C1983      C1992   1.402       .  A
S1984      H2000   1.406       .  S
S1986      H1997   1.403       .  S
C1988      C1989   1.403       .  A
C1988      S1993   1.806       .  S
C1989      C1990   1.402       .  A
C1989      H1994   1.083       .  S
C1990      C1991   1.412       .  A
C1991      C1992   1.400       .  A
C1991      S1995   1.803       .  S
C1992      H1996   1.084       .  S
S1993      H1998   1.407       .  S
S1995      H1999   1.404       .  S
C2001      C2002   1.400       .  A
C2001      C2006   1.398       .  A
C2001      H2011   1.084       .  S
C2002      C2007   1.477       .  S
C2002      C2003   1.413       .  A
C2003      C2004   1.399       .  A
C2003      S2008   1.806       .  S
C2004      C2005   1.405       .  A
C2004      H2009   1.084       .  S
C2005      C2006   1.417       .  A
C2006      S2010   1.804       .  S
C2007      C2012   1.409       .  A
C2007      C2016   1.401       .  A
S2008      H2024   1.405       .  S
S2010      H2021   1.406   1_554  S
C2012      C2013   1.401       .  A
C2012      S2017   1.807       .  S
C2013      C2014   1.404       .  A
C2013      H2018   1.083       .  S
C2014      C2015   1.416       .  A
C2015      C2016   1.398       .  A
C2015      S2019   1.805       .  S
C2016      H2020   1.084       .  S
S2017      H2022   1.407       .  S
S2019      H2023   1.408       .  S
C2025      C2026   1.401       .  A
C2025      C2030   1.392       .  A
C2025      H2035   1.084       .  S
C2026      C2031   1.475       .  S
C2026      C2027   1.413       .  A
C2027      C2028   1.401       .  A
C2027      S2032   1.803       .  S
C2028      C2029   1.402       .  A
C2028      H2033   1.084       .  S
C2029      C2030   1.412       .  A
C2030      S2034   1.804   1_556  S
C2031      C2036   1.411       .  A
C2031      C2040   1.400       .  A
S2032      H2048   1.406       .  S
S2034      H2045   1.405       .  S
C2036      C2037   1.403       .  A
C2036      S2041   1.805       .  S
C2037      C2038   1.400       .  A
C2037      H2042   1.083       .  S
C2038      C2039   1.411       .  A
C2039      C2040   1.392       .  A
C2039      S2043   1.803       .  S
C2040      H2044   1.084       .  S
S2041      H2046   1.407       .  S
S2043      H2047   1.405       .  S
C2049      C2050   1.400       .  A
C2049      C2054   1.398       .  A
C2049      H2059   1.084       .  S
C2050      C2055   1.471       .  S
C2050      C2051   1.407       .  A
C2051      C2052   1.394       .  A
C2051      S2056   1.806       .  S
C2052      C2053   1.408       .  A
C2052      H2057   1.083       .  S
C2053      C2054   1.418       .  A
C2054      S2058   1.802       .  S
C2055      C2060   1.409       .  A
C2055      C2064   1.398       .  A
S2056      H2072   1.406       .  S
S2058      H2069   1.407       .  S
C2060      C2061   1.400       .  A
C2060      S2065   1.808       .  S
C2061      C2062   1.403       .  A
C2061      H2066   1.083       .  S
C2062      C2063   1.416       .  A
C2063      C2064   1.395       .  A
C2063      S2067   1.805       .  S
C2064      H2068   1.084       .  S
S2065      H2070   1.407       .  S
S2067      H2071   1.407       .  S
C2073      C2074   1.399       .  A
C2073      C2078   1.395       .  A
C2073      H2083   1.084       .  S
C2074      C2079   1.468       .  S
C2074      C2075   1.410       .  A
C2075      C2076   1.395       .  A
C2075      S2080   1.805       .  S
C2076      C2077   1.405       .  A
C2076      H2081   1.084       .  S
C2077      C2078   1.415       .  A
C2078      S2082   1.800       .  S
C2079      C2084   1.407       .  A
C2079      C2088   1.399       .  A
S2080      H2096   1.405       .  S
S2082      H2093   1.408       .  S
C2084      C2085   1.398       .  A
C2084      S2089   1.807       .  S
C2085      C2086   1.403       .  A
C2085      H2090   1.083       .  S
C2086      C2087   1.415       .  A
C2087      C2088   1.395       .  A
C2087      S2091   1.802       .  S
C2088      H2092   1.084       .  S
S2089      H2094   1.407       .  S
S2091      H2095   1.407       .  S
C2097      C2098   1.403       .  A
C2097      C2102   1.398       .  A
C2097      H2107   1.084       .  S
C2098      C2103   1.471       .  S
C2098      C2099   1.412       .  A
C2099      C2100   1.391       .  A
C2099      S2104   1.806       .  S
C2100      C2101   1.400       .  A
C2100      H2105   1.084       .  S
C2101      C2102   1.410       .  A
C2102      S2106   1.804       .  S
C2103      C2108   1.409       .  A
C2103      C2112   1.401       .  A
S2104      H2120   1.406       .  S
S2106      H2117   1.407       .  S
C2108      C2109   1.399       .  A
C2108      S2113   1.807       .  S
C2109      C2110   1.402       .  A
C2109      H2114   1.083       .  S
C2110      C2111   1.410       .  A
C2111      C2112   1.394       .  A
C2111      S2115   1.804       .  S
C2112      H2116   1.084       .  S
S2113      H2118   1.407       .  S
S2115      H2119   1.407       .  S
C2121      C2122   1.403       .  A
C2121      C2126   1.403       .  A
C2121      H2131   1.084       .  S
C2122      C2127   1.483       .  S
C2122      C2123   1.412       .  A
C2123      C2124   1.399       .  A
C2123      S2128   1.805       .  S
C2124      C2125   1.406       .  A
C2124      H2129   1.084       .  S
C2125      C2126   1.416       .  A
C2126      S2130   1.803       .  S
C2127      C2132   1.411       .  A
C2127      C2136   1.400       .  A
S2128      H2144   1.405       .  S
S2130      H2141   1.408       .  S
C2132      C2133   1.405       .  A
C2132      S2137   1.807       .  S
C2133      C2134   1.406       .  A
C2133      H2138   1.083       .  S
C2134      C2135   1.417       .  A
C2135      C2136   1.404       .  A
C2135      S2139   1.809   1_556  S
C2136      H2140   1.083   1_556  S
S2137      H2142   1.407       .  S
S2139      H2143   1.407       .  S
C2145      C2146   1.400       .  A
C2145      C2150   1.396       .  A
C2145      H2155   1.084       .  S
C2146      C2151   1.470       .  S
C2146      C2147   1.410       .  A
C2147      C2148   1.396       .  A
C2147      S2152   1.805       .  S
C2148      C2149   1.402       .  A
C2148      H2153   1.082       .  S
C2149      C2150   1.413       .  A
C2150      S2154   1.804       .  S
C2151      C2156   1.405       .  A
C2151      C2160   1.400       .  A
S2152      H2168   1.405       .  S
S2154      H2165   1.407       .  S
C2156      C2157   1.400       .  A
C2156      S2161   1.806       .  S
C2157      C2158   1.407       .  A
C2157      H2162   1.082       .  S
C2158      C2159   1.415       .  A
C2159      C2160   1.396       .  A
C2159      S2163   1.805       .  S
C2160      H2164   1.084       .  S
S2161      H2166   1.407       .  S
S2163      H2167   1.408       .  S
C2169      C2170   1.400       .  A
C2169      C2174   1.396       .  A
C2169      H2179   1.084       .  S
C2170      C2175   1.467       .  S
C2170      C2171   1.410       .  A
C2171      C2172   1.393       .  A
C2171      S2176   1.806       .  S
C2172      C2173   1.403       .  A
C2172      H2177   1.084       .  S
C2173      C2174   1.413       .  A
C2174      S2178   1.804       .  S
C2175      C2180   1.403       .  A
C2175      C2184   1.397       .  A
S2176      H2192   1.404       .  S
S2178      H2189   1.405       .  S
C2180      C2181   1.395       .  A
C2180      S2185   1.809       .  S
C2181      C2182   1.410       .  A
C2181      H2186   1.081       .  S
C2182      C2183   1.423       .  A
C2183      C2184   1.398       .  A
C2183      S2187   1.802       .  S
C2184      H2188   1.084       .  S
S2185      H2190   1.407       .  S
S2187      H2191   1.405       .  S
C2193      C2194   1.403       .  A
C2193      C2198   1.399       .  A
C2193      H2203   1.084       .  S
C2194      C2199   1.483       .  S
C2194      C2195   1.413   1_554  A
C2195      C2196   1.400       .  A
C2195      S2200   1.804       .  S
C2196      C2197   1.404       .  A
C2196      H2201   1.084       .  S
C2197      C2198   1.415   1_556  A
C2198      S2202   1.804       .  S
C2199      C2204   1.411       .  A
C2199      C2208   1.401   1_554  A
S2200      H2216   1.406       .  S
S2202      H2213   1.407       .  S
C2204      C2205   1.405       .  A
C2204      S2209   1.806       .  S
C2205      C2206   1.405       .  A
C2205      H2210   1.083       .  S
C2206      C2207   1.416   1_554  A
C2207      C2208   1.396       .  A
C2207      S2211   1.806       .  S
C2208      H2212   1.084       .  S
S2209      H2214   1.407       .  S
S2211      H2215   1.408       .  S
C2217      C2218   1.404       .  A
C2217      C2222   1.401       .  A
C2217      H2227   1.084       .  S
C2218      C2223   1.485       .  S
C2218      C2219   1.413       .  A
C2219      C2220   1.401       .  A
C2219      S2224   1.805       .  S
C2220      C2221   1.405       .  A
C2220      H2225   1.084       .  S
C2221      C2222   1.414       .  A
C2222      S2226   1.805       .  S
C2223      C2228   1.410       .  A
C2223      C2232   1.401       .  A
S2224      H2240   1.405       .  S
S2226      H2237   1.407       .  S
C2228      C2229   1.406       .  A
C2228      S2233   1.806       .  S
C2229      C2230   1.407       .  A
C2229      H2234   1.083       .  S
C2230      C2231   1.417       .  A
C2231      C2232   1.399       .  A
C2231      S2235   1.803       .  S
C2232      H2236   1.084       .  S
S2233      H2238   1.407       .  S
S2235      H2239   1.407       .  S
C2241      C2242   1.403       .  A
C2241      C2246   1.402       .  A
C2241      H2251   1.084       .  S
C2242      C2247   1.491       .  S
C2242      C2243   1.413       .  A
C2243      C2244   1.404       .  A
C2243      S2248   1.804       .  S
C2244      C2245   1.409       .  A
C2244      H2249   1.083       .  S
C2245      C2246   1.419       .  A
C2246      S2250   1.803       .  S
C2247      C2252   1.411       .  A
C2247      C2256   1.404       .  A
S2248      H2264   1.406       .  S
S2250      H2261   1.408       .  S
C2252      C2253   1.407       .  A
C2252      S2257   1.807       .  S
C2253      C2254   1.407       .  A
C2253      H2258   1.083       .  S
C2254      C2255   1.417       .  A
C2255      C2256   1.403       .  A
C2255      S2259   1.804       .  S
C2256      H2260   1.084       .  S
S2257      H2262   1.407       .  S
S2259      H2263   1.407       .  S
C2265      C2266   1.403       .  A
C2265      C2270   1.401       .  A
C2265      H2275   1.084       .  S
C2266      C2271   1.481       .  S
C2266      C2267   1.412       .  A
C2267      C2268   1.400       .  A
C2267      S2272   1.810       .  S
C2268      C2269   1.405       .  A
C2268      H2273   1.083       .  S
C2269      C2270   1.416       .  A
C2270      S2274   1.801       .  S
C2271      C2276   1.410       .  A
C2271      C2280   1.402       .  A
S2272      H2288   1.407       .  S
S2274      H2285   1.408       .  S
C2276      C2277   1.406       .  A
C2276      S2281   1.805       .  S
C2277      C2278   1.406       .  A
C2277      H2282   1.083       .  S
C2278      C2279   1.411       .  A
C2279      C2280   1.395       .  A
C2279      S2283   1.804       .  S
C2280      H2284   1.084       .  S
S2281      H2286   1.407       .  S
S2283      H2287   1.407       .  S
C2289      C2290   1.401       .  A
C2289      C2294   1.398       .  A
C2289      H2299   1.084       .  S
C2290      C2295   1.477       .  S
C2290      C2291   1.411       .  A
C2291      C2292   1.398       .  A
C2291      S2296   1.804       .  S
C2292      C2293   1.404       .  A
C2292      H2297   1.084       .  S
C2293      C2294   1.415       .  A
C2294      S2298   1.804       .  S
C2295      C2300   1.407       .  A
C2295      C2304   1.402       .  A
S2296      H2312   1.406       .  S
S2298      H2309   1.407       .  S
C2300      C2301   1.401       .  A
C2300      S2305   1.807       .  S
C2301      C2302   1.407       .  A
C2301      H2306   1.083       .  S
C2302      C2303   1.416       .  A
C2303      C2304   1.399       .  A
C2303      S2307   1.804       .  S
C2304      H2308   1.084       .  S
S2305      H2310   1.407   1_554  S
S2307      H2311   1.408       .  S
C2313      C2314   1.402       .  A
C2313      C2318   1.398       .  A
C2313      H2323   1.084       .  S
C2314      C2319   1.475       .  S
C2314      C2315   1.410       .  A
C2315      C2316   1.398       .  A
C2315      S2320   1.804       .  S
C2316      C2317   1.404       .  A
C2316      H2321   1.084       .  S
C2317      C2318   1.412       .  A
C2318      S2322   1.804       .  S
C2319      C2324   1.406       .  A
C2319      C2328   1.400       .  A
S2320      H2336   1.405       .  S
S2322      H2333   1.407       .  S
C2324      C2325   1.396       .  A
C2324      S2329   1.810       .  S
C2325      C2326   1.410       .  A
C2325      H2330   1.082       .  S
C2326      C2327   1.421       .  A
C2327      C2328   1.404       .  A
C2327      S2331   1.801       .  S
C2328      H2332   1.084       .  S
S2329      H2334   1.407       .  S
S2331      H2335   1.408       .  S
C2337      C2338   1.401       .  A
C2337      C2342   1.398       .  A
C2337      H2347   1.084       .  S
C2338      C2343   1.480       .  S
C2338      C2339   1.413       .  A
C2339      C2340   1.403       .  A
C2339      S2344   1.803       .  S
C2340      C2341   1.404       .  A
C2340      H2345   1.084       .  S
C2341      C2342   1.414       .  A
C2342      S2346   1.805       .  S
C2343      C2348   1.408       .  A
C2343      C2352   1.403       .  A
S2344      H2360   1.405       .  S
S2346      H2357   1.407       .  S
C2348      C2349   1.401       .  A
C2348      S2353   1.808       .  S
C2349      C2350   1.405       .  A
C2349      H2354   1.083       .  S
C2350      C2351   1.415       .  A
C2351      C2352   1.403       .  A
C2351      S2355   1.803       .  S
C2352      H2356   1.084       .  S
S2353      H2358   1.407       .  S
S2355      H2359   1.407       .  S
C2361      C2362   1.403       .  A
C2361      C2366   1.401       .  A
C2361      H2371   1.084       .  S
C2362      C2367   1.479       .  S
C2362      C2363   1.411       .  A
C2363      C2364   1.399       .  A
C2363      S2368   1.805   1_556  S
C2364      C2365   1.405       .  A
C2364      H2369   1.084   1_556  S
C2365      C2366   1.414       .  A
C2366      S2370   1.805       .  S
C2367      C2372   1.407       .  A
C2367      C2376   1.400       .  A
S2368      H2384   1.405   1_554  S
S2370      H2381   1.407       .  S
C2372      C2373   1.403       .  A
C2372      S2377   1.806       .  S
C2373      C2374   1.407       .  A
C2373      H2378   1.083       .  S
C2374      C2375   1.418       .  A
C2375      C2376   1.400       .  A
C2375      S2379   1.803       .  S
C2376      H2380   1.084       .  S
S2377      H2382   1.407       .  S
S2379      H2383   1.407       .  S
C2385      C2386   1.403       .  A
C2385      C2390   1.401       .  A
C2385      H2395   1.083       .  S
C2386      C2391   1.482       .  S
C2386      C2387   1.411       .  A
C2387      C2388   1.399       .  A
C2387      S2392   1.803       .  S
C2388      C2389   1.406       .  A
C2388      H2393   1.084       .  S
C2389      C2390   1.415       .  A
C2390      S2394   1.810       .  S
C2391      C2396   1.410       .  A
C2391      C2400   1.403       .  A
S2392      H2408   1.406       .  S
S2394      H2405   1.407       .  S
C2396      C2397   1.404       .  A
C2396      S2401   1.805       .  S
C2397      C2398   1.404       .  A
C2397      H2402   1.083       .  S
C2398      C2399   1.412       .  A
C2399      C2400   1.396       .  A
C2399      S2403   1.805       .  S
C2400      H2404   1.084       .  S
S2401      H2406   1.407       .  S
S2403      H2407   1.407       .  S
C2409      C2410   1.401       .  A
C2409      C2414   1.398       .  A
C2409      H2419   1.084       .  S
C2410      C2415   1.477       .  S
C2410      C2411   1.411       .  A
C2411      C2412   1.398       .  A
C2411      S2416   1.806       .  S
C2412      C2413   1.407       .  A
C2412      H2417   1.084       .  S
C2413      C2414   1.416       .  A
C2414      S2418   1.803       .  S
C2415      C2420   1.407       .  A
C2415      C2424   1.401       .  A
S2416      H2432   1.405       .  S
S2418      H2429   1.408       .  S
C2420      C2421   1.401       .  A
C2420      S2425   1.807       .  S
C2421      C2422   1.408       .  A
C2421      H2426   1.083       .  S
C2422      C2423   1.416       .  A
C2423      C2424   1.398       .  A
C2423      S2427   1.802       .  S
C2424      H2428   1.084       .  S
S2425      H2430   1.407   1_556  S
S2427      H2431   1.405       .  S
C2433      C2434   1.397       .  A
C2433      C2438   1.393   1_554  A
C2433      H2443   1.084       .  S
C2434      C2439   1.471       .  S
C2434      C2435   1.410       .  A
C2435      C2436   1.398       .  A
C2435      S2440   1.804       .  S
C2436      C2437   1.406   1_554  A
C2436      H2441   1.084   1_554  S
C2437      C2438   1.418       .  A
C2438      S2442   1.801       .  S
C2439      C2444   1.407       .  A
C2439      C2448   1.398       .  A
S2440      H2456   1.406       .  S
S2442      H2453   1.404       .  S
C2444      C2445   1.398       .  A
C2444      S2449   1.808       .  S
C2445      C2446   1.407       .  A
C2445      H2450   1.082       .  S
C2446      C2447   1.422       .  A
C2447      C2448   1.397       .  A
C2447      S2451   1.803       .  S
C2448      H2452   1.084       .  S
S2449      H2454   1.406       .  S
S2451      H2455   1.408       .  S
C2457      C2458   1.402       .  A
C2457      C2462   1.401       .  A
C2457      H2467   1.084       .  S
C2458      C2463   1.472       .  S
C2458      C2459   1.406       .  A
C2459      C2460   1.390       .  A
C2459      S2464   1.806       .  S
C2460      C2461   1.412       .  A
C2460      H2465   1.083       .  S
C2461      C2462   1.418       .  A
C2462      S2466   1.800       .  S
C2463      C2468   1.407       .  A
C2463      C2472   1.401       .  A
S2464      H2480   1.406       .  S
S2466      H2477   1.408       .  S
C2468      C2469   1.397       .  A
C2468      S2473   1.808       .  S
C2469      C2470   1.406       .  A
C2469      H2474   1.083       .  S
C2470      C2471   1.416       .  A
C2471      C2472   1.398       .  A
C2471      S2475   1.804       .  S
C2472      H2476   1.084       .  S
S2473      H2478   1.407       .  S
S2475      H2479   1.408       .  S
C2481      C2482   1.403       .  A
C2481      C2486   1.399       .  A
C2481      H2491   1.084       .  S
C2482      C2487   1.477       .  S
C2482      C2483   1.410       .  A
C2483      C2484   1.397       .  A
C2483      S2488   1.806       .  S
C2484      C2485   1.407       .  A
C2484      H2489   1.084       .  S
C2485      C2486   1.415       .  A
C2486      S2490   1.802       .  S
C2487      C2492   1.409       .  A
C2487      C2496   1.397       .  A
S2488      H2504   1.405       .  S
S2490      H2501   1.407       .  S
C2492      C2493   1.406       .  A
C2492      S2497   1.805       .  S
C2493      C2494   1.407       .  A
C2493      H2498   1.083       .  S
C2494      C2495   1.420       .  A
C2495      C2496   1.393       .  A
C2495      S2499   1.804       .  S
C2496      H2500   1.084       .  S
S2497      H2502   1.407       .  S
S2499      H2503   1.408       .  S
C2505      C2506   1.400       .  A
C2505      C2510   1.399       .  A
C2505      H2515   1.084       .  S
C2506      C2511   1.469       .  S
C2506      C2507   1.410       .  A
C2507      C2508   1.393       .  A
C2507      S2512   1.806       .  S
C2508      C2509   1.405       .  A
C2508      H2513   1.084       .  S
C2509      C2510   1.417       .  A
C2510      S2514   1.803       .  S
C2511      C2516   1.407       .  A
C2511      C2520   1.399       .  A
S2512      H2528   1.404       .  S
S2514      H2525   1.407       .  S
C2516      C2517   1.400       .  A
C2516      S2521   1.806       .  S
C2517      C2518   1.404       .  A
C2517      H2522   1.083       .  S
C2518      C2519   1.415       .  A
C2519      C2520   1.395       .  A
C2519      S2523   1.804       .  S
C2520      H2524   1.084       .  S
S2521      H2526   1.407       .  S
S2523      H2527   1.403       .  S
C2529      C2530   1.397   1_554  A
C2529      C2534   1.391       .  A
C2529      H2539   1.085   1_554  S
C2530      C2535   1.472       .  S
C2530      C2531   1.412   1_556  A
C2531      C2532   1.404       .  A
C2531      S2536   1.804   1_554  S
C2532      C2533   1.407       .  A
C2532      H2537   1.084       .  S
C2533      C2534   1.415       .  A
C2534      S2538   1.802       .  S
C2535      C2540   1.409       .  A
C2535      C2544   1.399       .  A
S2536      H2552   1.404       .  S
S2538      H2549   1.408       .  S
C2540      C2541   1.403       .  A
C2540      S2545   1.806       .  S
C2541      C2542   1.403       .  A
C2541      H2546   1.083       .  S
C2542      C2543   1.414       .  A
C2543      C2544   1.396       .  A
C2543      S2547   1.804       .  S
C2544      H2548   1.084       .  S
S2545      H2550   1.407       .  S
S2547      H2551   1.406       .  S
C2553      C2554   1.399       .  A
C2553      C2558   1.398       .  A
C2553      H2563   1.083       .  S
C2554      C2559   1.474       .  S
C2554      C2555   1.410       .  A
C2555      C2556   1.400       .  A
C2555      S2560   1.803       .  S
C2556      C2557   1.406       .  A
C2556      H2561   1.084       .  S
C2557      C2558   1.416       .  A
C2558      S2562   1.808       .  S
C2559      C2564   1.410       .  A
C2559      C2568   1.400       .  A
S2560      H2576   1.406       .  S
S2562      H2573   1.407       .  S
C2564      C2565   1.402       .  A
C2564      S2569   1.806       .  S
C2565      C2566   1.402       .  A
C2565      H2570   1.083       .  S
C2566      C2567   1.410       .  A
C2567      C2568   1.395       .  A
C2567      S2571   1.802       .  S
C2568      H2572   1.084       .  S
S2569      H2574   1.407       .  S
S2571      H2575   1.406       .  S
C2577      C2578   1.403       .  A
C2577      C2582   1.403       .  A
C2577      H2587   1.083       .  S
C2578      C2583   1.485       .  S
C2578      C2579   1.412       .  A
C2579      C2580   1.400       .  A
C2579      S2584   1.804       .  S
C2580      C2581   1.406       .  A
C2580      H2585   1.084       .  S
C2581      C2582   1.415       .  A
C2582      S2586   1.808       .  S
C2583      C2588   1.412       .  A
C2583      C2592   1.402       .  A
S2584      H2600   1.406       .  S
S2586      H2597   1.407       .  S
C2588      C2589   1.404       .  A
C2588      S2593   1.807       .  S
C2589      C2590   1.405       .  A
C2589      H2594   1.083       .  S
C2590      C2591   1.416       .  A
C2591      C2592   1.399       .  A
C2591      S2595   1.804       .  S
C2592      H2596   1.084       .  S
S2593      H2598   1.407       .  S
S2595      H2599   1.407       .  S
C2601      C2602   1.399       .  A
C2601      C2606   1.399       .  A
C2601      H2611   1.084       .  S
C2602      C2607   1.476       .  S
C2602      C2603   1.410       .  A
C2603      C2604   1.398       .  A
C2603      S2608   1.804       .  S
C2604      C2605   1.405       .  A
C2604      H2609   1.084       .  S
C2605      C2606   1.419       .  A
C2606      S2610   1.801   1_556  S
C2607      C2612   1.408       .  A
C2607      C2616   1.402       .  A
S2608      H2624   1.406       .  S
S2610      H2621   1.407       .  S
C2612      C2613   1.396       .  A
C2612      S2617   1.810       .  S
C2613      C2614   1.404       .  A
C2613      H2618   1.083       .  S
C2614      C2615   1.416       .  A
C2615      C2616   1.403       .  A
C2615      S2619   1.803       .  S
C2616      H2620   1.084       .  S
S2617      H2622   1.406       .  S
S2619      H2623   1.407       .  S
C2625      C2626   1.402       .  A
C2625      C2630   1.395       .  A
C2625      H2635   1.084       .  S
C2626      C2631   1.477       .  S
C2626      C2627   1.413       .  A
C2627      C2628   1.398       .  A
C2627      S2632   1.804       .  S
C2628      C2629   1.401       .  A
C2628      H2633   1.083       .  S
C2629      C2630   1.410       .  A
C2630      S2634   1.803       .  S
C2631      C2636   1.409       .  A
C2631      C2640   1.402       .  A
S2632      H2648   1.406       .  S
S2634      H2645   1.405       .  S
C2636      C2637   1.399       .  A
C2636      S2641   1.808       .  S
C2637      C2638   1.403       .  A
C2637      H2642   1.083       .  S
C2638      C2639   1.414       .  A
C2639      C2640   1.398       .  A
C2639      S2643   1.805       .  S
C2640      H2644   1.084       .  S
S2641      H2646   1.407       .  S
S2643      H2647   1.403       .  S
C2649      C2650   1.402   1_556  A
C2649      C2654   1.396       .  A
C2649      H2659   1.084       .  S
C2650      C2655   1.480       .  S
C2650      C2651   1.413       .  A
C2651      C2652   1.401       .  A
C2651      S2656   1.803       .  S
C2652      C2653   1.403   1_554  A
C2652      H2657   1.084       .  S
C2653      C2654   1.411       .  A
C2654      S2658   1.799       .  S
C2655      C2660   1.411       .  A
C2655      C2664   1.401       .  A
S2656      H2672   1.406       .  S
S2658      H2669   1.407       .  S
C2660      C2661   1.404       .  A
C2660      S2665   1.807   1_554  S
C2661      C2662   1.404       .  A
C2661      H2666   1.083       .  S
C2662      C2663   1.413       .  A
C2663      C2664   1.396       .  A
C2663      S2667   1.804       .  S
C2664      H2668   1.084       .  S
S2665      H2670   1.407       .  S
S2667      H2671   1.407       .  S
C2673      C2674   1.403       .  A
C2673      C2678   1.399       .  A
C2673      H2683   1.084       .  S
C2674      C2679   1.481       .  S
C2674      C2675   1.412       .  A
C2675      C2676   1.399       .  A
C2675      S2680   1.804       .  S
C2676      C2677   1.404       .  A
C2676      H2681   1.084       .  S
C2677      C2678   1.415       .  A
C2678      S2682   1.803       .  S
C2679      C2684   1.410       .  A
C2679      C2688   1.403       .  A
S2680      H2696   1.406       .  S
S2682      H2693   1.402       .  S
C2684      C2685   1.403       .  A
C2684      S2689   1.807       .  S
C2685      C2686   1.403       .  A
C2685      H2690   1.083   1_556  S
C2686      C2687   1.413       .  A
C2687      C2688   1.399       .  A
C2687      S2691   1.805       .  S
C2688      H2692   1.084       .  S
S2689      H2694   1.407   1_556  S
S2691      H2695   1.407       .  S
C2697      C2698   1.404       .  A
C2697      C2702   1.398       .  A
C2697      H2707   1.084       .  S
C2698      C2703   1.484       .  S
C2698      C2699   1.412       .  A
C2699      C2700   1.399       .  A
C2699      S2704   1.803       .  S
C2700      C2701   1.406       .  A
C2700      H2705   1.084       .  S
C2701      C2702   1.416       .  A
C2702      S2706   1.805       .  S
C2703      C2708   1.411       .  A
C2703      C2712   1.402       .  A
S2704      H2720   1.407       .  S
S2706      H2717   1.408       .  S
C2708      C2709   1.406       .  A
C2708      S2713   1.806       .  S
C2709      C2710   1.405       .  A
C2709      H2714   1.083       .  S
C2710      C2711   1.413       .  A
C2711      C2712   1.398       .  A
C2711      S2715   1.810       .  S
C2712      H2716   1.083       .  S
S2713      H2718   1.407       .  S
S2715      H2719   1.407       .  S
C2721      C2722   1.404       .  A
C2721      C2726   1.402       .  A
C2721      H2731   1.084       .  S
C2722      C2727   1.477       .  S
C2722      C2723   1.409       .  A
C2723      C2724   1.397       .  A
C2723      S2728   1.805       .  S
C2724      C2725   1.406       .  A
C2724      H2729   1.084       .  S
C2725      C2726   1.414       .  A
C2726      S2730   1.803       .  S
C2727      C2732   1.405       .  A
C2727      C2736   1.401       .  A
S2728      H2744   1.405       .  S
S2730      H2741   1.407       .  S
C2732      C2733   1.399       .  A
C2732      S2737   1.807       .  S
C2733      C2734   1.410       .  A
C2733      H2738   1.082       .  S
C2734      C2735   1.420       .  A
C2735      C2736   1.402       .  A
C2735      S2739   1.802       .  S
C2736      H2740   1.084       .  S
S2737      H2742   1.407       .  S
S2739      H2743   1.407       .  S
C2745      C2746   1.402       .  A
C2745      C2750   1.398       .  A
C2745      H2755   1.084       .  S
C2746      C2751   1.475       .  S
C2746      C2747   1.411       .  A
C2747      C2748   1.396       .  A
C2747      S2752   1.804       .  S
C2748      C2749   1.401       .  A
C2748      H2753   1.084       .  S
C2749      C2750   1.414       .  A
C2750      S2754   1.808       .  S
C2751      C2756   1.410       .  A
C2751      C2760   1.400       .  A
S2752      H2768   1.406       .  S
S2754      H2765   1.402       .  S
C2756      C2757   1.405       .  A
C2756      S2761   1.805       .  S
C2757      C2758   1.402       .  A
C2757      H2762   1.083       .  S
C2758      C2759   1.411       .  A
C2759      C2760   1.392       .  A
C2759      S2763   1.805       .  S
C2760      H2764   1.084       .  S
S2761      H2766   1.407       .  S
S2763      H2767   1.405       .  S
C2769      C2770   1.401       .  A
C2769      C2774   1.393       .  A
C2769      H2779   1.084       .  S
C2770      C2775   1.473       .  S
C2770      C2771   1.415       .  A
C2771      C2772   1.399       .  A
C2771      S2776   1.805       .  S
C2772      C2773   1.400       .  A
C2772      H2777   1.084       .  S
C2773      C2774   1.410       .  A
C2774      S2778   1.805       .  S
C2775      C2780   1.409       .  A
C2775      C2784   1.401       .  A
S2776      H2792   1.405       .  S
S2778      H2789   1.406   1_556  S
C2780      C2781   1.404       .  A
C2780      S2785   1.805       .  S
C2781      C2782   1.403       .  A
C2781      H2786   1.083       .  S
C2782      C2783   1.411       .  A
C2783      C2784   1.392       .  A
C2783      S2787   1.807       .  S
C2784      H2788   1.084       .  S
S2785      H2790   1.407       .  S
S2787      H2791   1.407       .  S
C2793      C2794   1.402       .  A
C2793      C2798   1.400       .  A
C2793      H2803   1.084       .  S
C2794      C2799   1.479       .  S
C2794      C2795   1.413       .  A
C2795      C2796   1.396       .  A
C2795      S2800   1.806       .  S
C2796      C2797   1.405       .  A
C2796      H2801   1.084       .  S
C2797      C2798   1.418       .  A
C2798      S2802   1.800       .  S
C2799      C2804   1.409       .  A
C2799      C2808   1.400       .  A
S2800      H2816   1.406       .  S
S2802      H2813   1.407       .  S
C2804      C2805   1.404       .  A
C2804      S2809   1.805       .  S
C2805      C2806   1.408       .  A
C2805      H2810   1.082       .  S
C2806      C2807   1.416       .  A
C2807      C2808   1.395       .  A
C2807      S2811   1.803       .  S
C2808      H2812   1.084       .  S
S2809      H2814   1.407       .  S
S2811      H2815   1.404       .  S
C2817      C2818   1.401       .  A
C2817      C2822   1.401       .  A
C2817      H2827   1.083       .  S
C2818      C2823   1.474       .  S
C2818      C2819   1.410       .  A
C2819      C2820   1.397       .  A
C2819      S2824   1.804       .  S
C2820      C2821   1.403       .  A
C2820      H2825   1.084       .  S
C2821      C2822   1.412       .  A
C2822      S2826   1.808       .  S
C2823      C2828   1.407       .  A
C2823      C2832   1.400       .  A
S2824      H2840   1.406       .  S
S2826      H2837   1.407       .  S
C2828      C2829   1.402       .  A
C2828      S2833   1.806       .  S
C2829      C2830   1.407       .  A
C2829      H2834   1.083       .  S
C2830      C2831   1.415       .  A
C2831      C2832   1.396       .  A
C2831      S2835   1.804       .  S
C2832      H2836   1.084       .  S
S2833      H2838   1.407       .  S
S2835      H2839   1.407       .  S
C2841      C2842   1.401       .  A
C2841      C2846   1.398       .  A
C2841      H2851   1.084       .  S
C2842      C2847   1.477       .  S
C2842      C2843   1.413       .  A
C2843      C2844   1.397       .  A
C2843      S2848   1.805       .  S
C2844      C2845   1.402       .  A
C2844      H2849   1.084       .  S
C2845      C2846   1.415       .  A
C2846      S2850   1.803       .  S
C2847      C2852   1.410       .  A
C2847      C2856   1.402       .  A
S2848      H2864   1.406       .  S
S2850      H2861   1.407       .  S
C2852      C2853   1.399       .  A
C2852      S2857   1.808       .  S
C2853      C2854   1.404       .  A
C2853      H2858   1.083       .  S
C2854      C2855   1.414       .  A
C2855      C2856   1.400       .  A
C2855      S2859   1.803       .  S
C2856      H2860   1.084       .  S
S2857      H2862   1.407       .  S
S2859      H2863   1.407       .  S
C2865      C2866   1.400       .  A
C2865      C2870   1.393       .  A
C2865      H2875   1.084       .  S
C2866      C2871   1.476       .  S
C2866      C2867   1.410       .  A
C2867      C2868   1.398       .  A
C2867      S2872   1.804       .  S
C2868      C2869   1.408       .  A
C2868      H2873   1.084       .  S
C2869      C2870   1.419       .  A
C2870      S2874   1.804       .  S
C2871      C2876   1.408       .  A
C2871      C2880   1.401       .  A
S2872      H2888   1.406       .  S
S2874      H2885   1.408       .  S
C2876      C2877   1.398       .  A
C2876      S2881   1.808       .  S
C2877      C2878   1.407       .  A
C2877      H2882   1.083       .  S
C2878      C2879   1.414       .  A
C2879      C2880   1.400       .  A
C2879      S2883   1.808       .  S
C2880      H2884   1.083       .  S
S2881      H2886   1.407       .  S
S2883      H2887   1.407       .  S
C2889      C2890   1.397       .  A
C2889      C2894   1.392       .  A
C2889      H2899   1.085       .  S
C2890      C2895   1.473       .  S
C2890      C2891   1.411       .  A
C2891      C2892   1.400       .  A
C2891      S2896   1.804       .  S
C2892      C2893   1.406       .  A
C2892      H2897   1.083       .  S
C2893      C2894   1.420       .  A
C2894      S2898   1.804       .  S
C2895      C2900   1.408       .  A
C2895      C2904   1.399       .  A
S2896      H2912   1.405       .  S
S2898      H2909   1.400       .  S
C2900      C2901   1.397       .  A
C2900      S2905   1.809       .  S
C2901      C2902   1.406       .  A
C2901      H2906   1.083       .  S
C2902      C2903   1.418       .  A
C2903      C2904   1.398       .  A
C2903      S2907   1.802       .  S
C2904      H2908   1.084       .  S
S2905      H2910   1.407       .  S
S2907      H2911   1.408       .  S
C2913      C2914   1.399       .  A
C2913      C2918   1.396       .  A
C2913      H2923   1.084       .  S
C2914      C2919   1.474       .  S
C2914      C2915   1.408       .  A
C2915      C2916   1.398       .  A
C2915      S2920   1.804       .  S
C2916      C2917   1.409       .  A
C2916      H2921   1.084       .  S
C2917      C2918   1.420       .  A
C2918      S2922   1.803       .  S
C2919      C2924   1.410       .  A
C2919      C2928   1.400       .  A
S2920      H2936   1.405       .  S
S2922      H2933   1.403       .  S
C2924      C2925   1.403       .  A
C2924      S2929   1.807       .  S
C2925      C2926   1.402       .  A
C2925      H2930   1.083       .  S
C2926      C2927   1.412       .  A
C2927      C2928   1.395       .  A
C2927      S2931   1.806       .  S
C2928      H2932   1.084       .  S
S2929      H2934   1.407       .  S
S2931      H2935   1.407       .  S
C2937      C2938   1.401       .  A
C2937      C2942   1.398       .  A
C2937      H2947   1.084       .  S
C2938      C2943   1.475       .  S
C2938      C2939   1.411       .  A
C2939      C2940   1.397       .  A
C2939      S2944   1.809       .  S
C2940      C2941   1.404       .  A
C2940      H2945   1.083       .  S
C2941      C2942   1.416       .  A
C2942      S2946   1.802       .  S
C2943      C2948   1.406       .  A
C2943      C2952   1.400       .  A
S2944      H2960   1.407       .  S
S2946      H2957   1.408       .  S
C2948      C2949   1.402       .  A
C2948      S2953   1.805       .  S
C2949      C2950   1.408       .  A
C2949      H2954   1.082       .  S
C2950      C2951   1.413       .  A
C2951      C2952   1.394       .  A
C2951      S2955   1.801       .  S
C2952      H2956   1.084       .  S
S2953      H2958   1.407       .  S
S2955      H2959   1.407       .  S
C2961      C2962   1.403       .  A
C2961      C2966   1.399       .  A
C2961      H2971   1.084       .  S
C2962      C2967   1.477       .  S
C2962      C2963   1.409       .  A
C2963      C2964   1.396       .  A
C2963      S2968   1.805       .  S
C2964      C2965   1.407       .  A
C2964      H2969   1.084       .  S
C2965      C2966   1.415       .  A
C2966      S2970   1.803       .  S
C2967      C2972   1.408       .  A
C2967      C2976   1.401       .  A
S2968      H2984   1.406       .  S
S2970      H2981   1.407   1_655  S
C2972      C2973   1.402       .  A
C2972      S2977   1.806       .  S
C2973      C2974   1.406       .  A
C2973      H2978   1.083       .  S
C2974      C2975   1.416       .  A
C2975      C2976   1.396       .  A
C2975      S2979   1.805       .  S
C2976      H2980   1.084       .  S
S2977      H2982   1.407       .  S
S2979      H2983   1.408       .  S
C2985      C2986   1.405       .  A
C2985      C2990   1.401       .  A
C2985      H2995   1.084       .  S
C2986      C2991   1.477       .  S
C2986      C2987   1.409       .  A
C2987      C2988   1.392       .  A
C2987      S2992   1.805       .  S
C2988      C2989   1.406       .  A
C2988      H2993   1.084       .  S
C2989      C2990   1.413       .  A
C2990      S2994   1.800       .  S
C2991      C2996   1.407       .  A
C2991      C3000   1.402       .  A
S2992      H3008   1.406       .  S
S2994      H3005   1.407       .  S
C2996      C2997   1.400       .  A
C2996      S3001   1.807       .  S
C2997      C2998   1.406       .  A
C2997      H3002   1.082       .  S
C2998      C2999   1.415       .  A
C2999      C3000   1.401       .  A
C2999      S3003   1.810       .  S
C3000      H3004   1.083       .  S
S3001      H3006   1.407       .  S
S3003      H3007   1.407       .  S
