geometry optimzed in LAMMPS
_audit_creation_date              2020-12-01 
_audit_creation_method            'lammps2cif' 
_symmetry_space_group_name_H-M    'P1' 
_symmetry_Int_Tables_number       1 
_symmetry_cell_setting            triclinic 
loop_ 
_symmetry_equiv_pos_as_xyz 
  x,y,z 
_cell_length_a                    45.0675597 
_cell_length_b                    45.150829441330906 
_cell_length_c                    92.01518572353213 
_cell_angle_alpha                 90.32654590319531 
_cell_angle_beta                  89.82992004249994 
_cell_angle_gamma                 120.52434210139296 
loop_ 
_atom_site_label 
_atom_site_type_symbol 
_atom_site_fract_x 
_atom_site_fract_y 
_atom_site_fract_z 
_atom_site_charge 
O1          O  0.93022956  0.32054725  0.49566923    -0.81000
O2          O  0.77528315  0.26468903  0.50618621    -0.65700
O3          O  0.86492824  0.27545865  0.50728364    -1.12300
C4          C  0.83691970  0.23404249  0.45853311     1.05900
O5          O  0.75457705  0.21296981  0.49681352    -0.78900
O6          O  0.79125348  0.18571784  0.48630122    -0.66500
Ni7        Ni  0.90425310  0.31778431  0.51282106     1.34900
C8          C  0.81722670  0.18666665  0.49207854     0.84600
O9          O  0.82387723  0.28647919  0.52705479    -0.79500
O10         O  0.88153427  0.31838451  0.53035245    -0.89700
C11         C  0.74969129  0.23600124  0.50232082     0.84200
O12         O  0.89285235  0.34896711  0.50411615    -0.67900
O13         O  0.80559339  0.22401910  0.46172374    -0.87200
C14         C  0.86428660  0.34635214  0.50085545     0.85000
C15         C  0.85052211  0.30665330  0.53456839     1.06600
H16         H  0.82378300  0.27793540  0.48124120     0.38400
O17         O  0.82067728  0.25910926  0.48726673    -1.09900
O18         O  0.84596539  0.21426371  0.49402076    -0.66500
Ni19       Ni  0.86384071  0.26116078  0.48766175     1.26300
O20         O  0.83593031  0.31802189  0.50129984    -0.66800
O21         O  0.86139688  0.24741149  0.46777649    -0.79000
C22         C  0.93455466  0.29663612  0.49076370     0.84400
O23         O  0.90883290  0.26669168  0.48881191    -0.66200
Ni24       Ni  0.78145480  0.21963359  0.47956802     1.27400
Ni25       Ni  0.82086200  0.27176515  0.50717501     1.26100
H26         H  0.86369509  0.25806326  0.51374149     0.38900
O27         O  0.97541061  0.25753043  0.32045993    -0.81000
O28         O  0.91005934  0.09735398  0.31438985    -0.65700
O29         O  0.92691907  0.18920072  0.31183047    -1.12300
C30         C  0.88281528  0.17488350  0.35871912     1.05900
O31         O  0.87144598  0.07716147  0.33227486    -0.78900
O32         O  0.84428717  0.11753169  0.32633933    -0.66500
Ni33       Ni  0.97121119  0.22530090  0.30561161     1.34900
C34         C  0.84343778  0.14458457  0.32350478     0.84600
O35         O  0.92975899  0.14239019  0.29264755    -0.79500
O36         O  0.97183320  0.19759665  0.28994832    -0.89700
C37         C  0.88877261  0.07295236  0.32246128     0.84200
O38         O  0.99877638  0.21335807  0.31715162    -0.67900
O39         O  0.86242826  0.14481476  0.35391316    -0.87200
C40         C  0.99471855  0.18373200  0.31911608     0.85000
C41         C  0.95498813  0.16645722  0.28565748     1.06600
H42         H  0.93070919  0.15014275  0.33916840     0.38400
O43         O  0.91189720  0.14811832  0.33339130    -1.09900
O44         O  0.86830439  0.17475191  0.32664616    -0.66500
Ni45       Ni  0.91678051  0.19255821  0.33155523     1.26300
O46         O  0.96596782  0.15632821  0.31727878    -0.66800
O47         O  0.90899257  0.19611449  0.35159290    -0.79000
C48         C  0.95224836  0.26242968  0.32583618     0.84400
O49         O  0.92293596  0.23723796  0.32901533    -0.66200
Ni50       Ni  0.86957423  0.11370426  0.34191479     1.27400
Ni51       Ni  0.91950236  0.14370373  0.31293690     1.26100
H52         H  0.90960140  0.18900997  0.30557756     0.38900
O53         O  0.80080235  0.74819728  0.31589345    -0.81000
O54         O  0.95741109  0.84957052  0.31041473    -0.65700
O55         O  0.86828125  0.76890225  0.30675132    -1.12300
C56         C  0.88645006  0.75379393  0.35644947     1.05900
O57         O  0.97785821  0.82075007  0.32168042    -0.78900
O58         O  0.93882102  0.75513562  0.32973684    -0.66500
Ni59       Ni  0.83019085  0.77163353  0.29953531     1.34900
C60         C  0.91359286  0.72922145  0.32377280     0.84600
O61         O  0.91286977  0.82229707  0.28803400    -0.79500
O62         O  0.85610280  0.79527314  0.28261273    -0.89700
C63         C  0.98274193  0.84796729  0.31549471     0.84200
O64         O  0.84008030  0.81450300  0.30795276    -0.67900
O65         O  0.91843762  0.77484892  0.35422937    -0.87200
C66         C  0.86795563  0.84044643  0.31223249     0.85000
C67         C  0.88777354  0.81560793  0.27952563     1.06600
H68         H  0.90456230  0.81275025  0.33379751     0.38400
O69         O  0.90872746  0.79715915  0.32811871    -1.09900
O70         O  0.88429835  0.72643397  0.32164418    -0.66500
Ni71       Ni  0.86540873  0.75549328  0.32655630     1.26300
O72         O  0.89602290  0.84044192  0.31306968    -0.66800
O73         O  0.86362847  0.74399956  0.34656234    -0.79000
C74         C  0.79531001  0.72033563  0.32166868     0.84400
O75         O  0.82029162  0.71565766  0.32428029    -0.66200
Ni76       Ni  0.94640481  0.79748648  0.33746259     1.27400
Ni77       Ni  0.91226747  0.80999096  0.30810445     1.26100
H78         H  0.87071136  0.75278714  0.30063757     0.38900
O79         O  0.76173062  0.65954568  0.50082190    -0.81000
O80         O  0.81106475  0.55233804  0.50103842    -0.65700
O81         O  0.80549518  0.63335887  0.50629540    -1.12300
C82         C  0.83081393  0.64583537  0.45538516     1.05900
O83         O  0.85891230  0.58113876  0.48844808    -0.78900
O84         O  0.88468747  0.64525318  0.47840703    -0.66500
Ni85       Ni  0.76620056  0.63113573  0.51517418     1.34900
C86         C  0.88796704  0.67053249  0.48580858     0.84600
O87         O  0.79975961  0.58062136  0.52436940    -0.79500
O88         O  0.76671320  0.60298087  0.53055385    -0.89700
C89         C  0.83763307  0.55429915  0.49531111     0.84200
O90         O  0.73160435  0.59089719  0.50541920    -0.67900
O91         O  0.83763049  0.62182426  0.45671593    -0.87200
C92         C  0.73155723  0.56366831  0.50182479     0.85000
C93         C  0.77961413  0.58410650  0.53304892     1.06600
H94         H  0.79099492  0.58850283  0.47910525     0.38400
O95         O  0.81237130  0.60382813  0.48402215    -1.09900
O96         O  0.86258741  0.67295884  0.49041162    -0.66500
Ni97       Ni  0.81376343  0.64638965  0.48627871     1.26300
O98         O  0.75868133  0.56179478  0.50116141    -0.66800
O99         O  0.82234955  0.65823228  0.46605987    -0.79000
C100        C  0.78468359  0.68594906  0.49415769     0.84400
O101        O  0.81186684  0.68743180  0.48932830    -0.66200
Ni102      Ni  0.84690879  0.60168674  0.47301391     1.27400
Ni103      Ni  0.80702044  0.59203777  0.50414422     1.26100
H104        H  0.82523643  0.64931915  0.51200466     0.38900
O105        O  0.31221020  0.09077918  0.31907889    -0.81000
O106        O  0.20425099  0.13335380  0.32229634    -0.65700
O107        O  0.28905660  0.13709750  0.31447665    -1.12300
C108        C  0.31576504  0.17460954  0.36262251     1.05900
O109        O  0.22925056  0.18364014  0.33395959    -0.78900
O110        O  0.29791385  0.21485211  0.33134847    -0.66500
Ni111      Ni  0.28957301  0.10111500  0.30385417     1.34900
C112        C  0.32674184  0.21787715  0.32831434     0.84600
O113        O  0.22985280  0.12133361  0.29815793    -0.79500
O114        O  0.26812457  0.10962924  0.28779420    -0.89700
C115        C  0.20344528  0.15887162  0.32764994     0.84200
O116        O  0.24509414  0.06292125  0.30928885    -0.67900
O117        O  0.30180284  0.19193347  0.35886901    -0.87200
C118        C  0.22044934  0.06064711  0.31696851     0.85000
C119        C  0.24127631  0.11225761  0.28731489     1.06600
H120        H  0.24761172  0.12646370  0.34381023     0.38400
O121        O  0.26225096  0.14528995  0.33745306    -1.09900
O122        O  0.33328424  0.19384832  0.33050232    -0.66500
Ni123      Ni  0.30389705  0.14473330  0.33427249     1.26300
O124        O  0.22198076  0.08663785  0.32306613    -0.66800
O125        O  0.31636547  0.15220793  0.35434273    -0.79000
C126        C  0.34027714  0.11287088  0.32516624     0.84400
O127        O  0.34353756  0.14050804  0.33041971    -0.66200
Ni128      Ni  0.26593368  0.18580585  0.34555263     1.27400
Ni129      Ni  0.24601066  0.13414667  0.31789913     1.26100
H130        H  0.30316247  0.15792773  0.30905003     0.38900
O131        O  0.42551197  0.14649268  0.50398694    -0.81000
O132        O  0.52665719  0.30009085  0.50581171    -0.65700
O133        O  0.44421401  0.21394122  0.51158050    -1.12300
C134        C  0.42247575  0.22944972  0.46273609     1.05900
O135        O  0.49545231  0.32092291  0.49706905    -0.78900
O136        O  0.42807299  0.28210023  0.49232571    -0.66500
Ni137      Ni  0.44517605  0.17679748  0.52051443     1.34900
C138        C  0.40144110  0.25521727  0.49674303     0.84600
O139        O  0.50239649  0.25725442  0.52882318    -0.79500
O140        O  0.46498168  0.20455322  0.53752993    -0.89700
C141        C  0.52403630  0.32551240  0.50171814     0.84200
O142        O  0.49011642  0.18659413  0.51475851    -0.67900
O143        O  0.44000078  0.26155299  0.46582588    -0.87200
C144        C  0.51443335  0.21056336  0.50755042     0.85000
C145        C  0.49158879  0.23449951  0.53883790     1.06600
H146        H  0.48534039  0.24937310  0.48331217     0.38400
O147        O  0.47021270  0.25258010  0.48974960    -1.09900
O148        O  0.39834992  0.22549345  0.49663951    -0.66500
Ni149      Ni  0.42956912  0.20885829  0.49180591     1.26300
O150        O  0.51299779  0.23623332  0.50287753    -0.66800
O151        O  0.41726822  0.20593996  0.47176521    -0.79000
C152        C  0.39758809  0.13927630  0.49761881     0.84400
O153        O  0.39143126  0.16303909  0.49447502    -0.66200
Ni154      Ni  0.46758729  0.28971882  0.48188778     1.27400
Ni155      Ni  0.48638153  0.25622541  0.50922471     1.26100
H156        H  0.42927130  0.21866089  0.51745654     0.38900
O157        O  0.14958545  0.43447801  0.98485873    -0.81000
O158        O  0.30189926  0.53436210  0.98686357    -0.65700
O159        O  0.21744143  0.45244087  0.97867744    -1.12300
C160        C  0.22287734  0.41810809  0.02546950     1.05900
O161        O  0.32396497  0.51040320  0.00106686    -0.78900
O162        O  0.28510948  0.44190426  0.99491060    -0.66500
Ni163      Ni  0.18144834  0.45423112  0.96895473     1.34900
C164        C  0.25897127  0.41331867  0.99139481     0.84600
O165        O  0.26249954  0.51129532  0.96278206    -0.79500
O166        O  0.21116177  0.47404222  0.95263453    -0.89700
C167        C  0.32701870  0.53570627  0.99372013     0.84200
O168        O  0.19105033  0.49923885  0.97462619    -0.67900
O169        O  0.25458516  0.43119321  0.02205512    -0.87200
C170        C  0.21378843  0.52223190  0.98283072     0.85000
C171        C  0.24105595  0.50090571  0.95215863     1.06600
H172        H  0.24850263  0.49125563  0.00842123     0.38400
O173        O  0.25239770  0.47669118  0.00191375    -1.09900
O174        O  0.22806384  0.40660315  0.99366090    -0.66500
Ni175      Ni  0.20914954  0.43638169  0.99807669     1.26300
O176        O  0.23796215  0.51952697  0.98837660    -0.66800
O177        O  0.20208858  0.42228661  0.01773751    -0.79000
C178        C  0.14111768  0.40589949  0.99079802     0.84400
O179        O  0.16413150  0.39854766  0.99379802    -0.66200
Ni180      Ni  0.28699770  0.47048546  0.01050138     1.27400
Ni181      Ni  0.25905485  0.49401926  0.98239533     1.26100
H182        H  0.22295047  0.43799405  0.97285404     0.38900
O183        O  0.07764116  0.31205417  0.16256694    -0.81000
O184        O  0.14056514  0.21859358  0.17217429    -0.65700
O185        O  0.12530576  0.29445291  0.17323135    -1.12300
C186        C  0.15935808  0.30559282  0.12338042     1.05900
O187        O  0.18850387  0.24858536  0.15992745    -0.78900
O188        O  0.21188272  0.31094903  0.14912958    -0.66500
Ni189      Ni  0.08127639  0.28697498  0.17879018     1.34900
C190        C  0.21204222  0.33576435  0.15571553     0.84600
O191        O  0.12199346  0.24717444  0.19362704    -0.79500
O192        O  0.08143352  0.26226560  0.19574169    -0.89700
C193        C  0.16697088  0.22089671  0.16613653     0.84200
O194        O  0.05281781  0.24459484  0.16854577    -0.67900
O195        O  0.16872949  0.28374761  0.12582842    -0.87200
C196        C  0.05692594  0.21887035  0.16751347     0.85000
C197        C  0.09826425  0.24869440  0.20068892     1.06600
H198        H  0.11936967  0.24875963  0.14761976     0.38400
O199        O  0.13959353  0.26571372  0.15279690    -1.09900
O200        O  0.18487491  0.33665742  0.15875370    -0.66500
Ni201      Ni  0.13703550  0.30652532  0.15337829     1.26300
O202        O  0.08569488  0.22103270  0.16949251    -0.66800
O203        O  0.14821108  0.31734699  0.13326635    -0.79000
C204        C  0.10093165  0.34025092  0.15708802     0.84400
O205        O  0.13102519  0.34541753  0.15489125    -0.66200
Ni206      Ni  0.17729528  0.26619300  0.14326988     1.27400
Ni207      Ni  0.13206277  0.25600617  0.17323829     1.26100
H208        H  0.14241989  0.31220625  0.17945068     0.38900
O209        O  0.65949292  0.77260109  0.97690490    -0.81000
O210        O  0.55362128  0.82631348  0.97359709    -0.65700
O211        O  0.63194443  0.81474218  0.97016770    -1.12300
C212        C  0.64545717  0.84961325  0.02024893     1.05900
O213        O  0.58622810  0.87622368  0.98413991    -0.78900
O214        O  0.64921009  0.90105904  0.99567533    -0.66500
Ni215      Ni  0.62446230  0.77083761  0.96418324     1.34900
C216        C  0.67384530  0.90228931  0.98848744     0.84600
O217        O  0.57956326  0.80782621  0.95144173    -0.79500
O218        O  0.59002114  0.76436309  0.95012058    -0.89700
C219        C  0.55747582  0.85420599  0.97873606     0.84200
O220        O  0.58895587  0.74470781  0.97815833    -0.67900
O221        O  0.62200344  0.85697515  0.01808443    -0.87200
C222        C  0.56158989  0.74598339  0.97998203     0.85000
C223        C  0.57570788  0.78060411  0.94546419     1.06600
H224        H  0.58911567  0.80860015  0.99704338     0.38400
O225        O  0.60471458  0.82856076  0.99142832    -1.09900
O226        O  0.67430766  0.87561277  0.98416561    -0.66500
Ni227      Ni  0.64627461  0.82779746  0.98999179     1.26300
O228        O  0.55966336  0.77214613  0.97647771    -0.66800
O229        O  0.65868715  0.84042321  0.01011293    -0.79000
C230        C  0.68546793  0.79644356  0.98363747     0.84400
O231        O  0.68646526  0.82380970  0.98790831    -0.66200
Ni232      Ni  0.60425027  0.86564415  0.00085340     1.27400
Ni233      Ni  0.59189178  0.81918751  0.97143619     1.26100
H234        H  0.64836462  0.83199126  0.96362382     0.38900
O235        O  0.74449785  0.80480162  0.16035801    -0.81000
O236        O  0.84966053  0.95430788  0.16342340    -0.65700
O237        O  0.76472679  0.87145677  0.16930144    -1.12300
C238        C  0.74068702  0.89235188  0.12200702     1.05900
O239        O  0.82164010  0.98000372  0.15603496    -0.78900
O240        O  0.75309753  0.94360202  0.15385852    -0.66500
Ni241      Ni  0.76414230  0.83285642  0.17747489     1.34900
C242        C  0.72526099  0.91676730  0.15732802     0.84600
O243        O  0.82436585  0.91071850  0.18613401    -0.79500
O244        O  0.78404064  0.85908049  0.19485053    -0.89700
C245        C  0.84921053  0.98133244  0.16015808     0.84200
O246        O  0.80917771  0.84173135  0.17219810    -0.67900
O247        O  0.75823167  0.92392673  0.12591832    -0.87200
C248        C  0.83350283  0.86533091  0.16484024     0.85000
C249        C  0.81213704  0.88789774  0.19613298     1.06600
H250        H  0.80527337  0.90797572  0.14082465     0.38400
O251        O  0.79108027  0.91122200  0.14779423    -1.09900
O252        O  0.71994494  0.88638480  0.15551401    -0.66500
Ni253      Ni  0.74944982  0.86832049  0.14975076     1.26300
O254        O  0.83124684  0.88979339  0.15934702    -0.66800
O255        O  0.73645805  0.86750128  0.12998959    -0.79000
C256        C  0.71645033  0.79867710  0.15440231     0.84400
O257        O  0.71052209  0.82297117  0.15215752    -0.66200
Ni258      Ni  0.78955497  0.95013060  0.14146453     1.27400
Ni259      Ni  0.80792911  0.91216295  0.16687583     1.26100
H260        H  0.75091670  0.87695284  0.17555957     0.38900
O261        O  0.31627372  0.93534693  0.98746611    -0.81000
O262        O  0.26963866  0.78399672  0.98404043    -0.65700
O263        O  0.26990395  0.86769237  0.97893861    -1.12300
C264        C  0.23153811  0.84974155  0.02791191     1.05900
O265        O  0.21790239  0.75993723  0.99401987    -0.78900
O266        O  0.18599932  0.79498869  0.99911359    -0.66500
Ni267      Ni  0.30837729  0.90660835  0.97061874     1.34900
C268        C  0.18459790  0.82039939  0.99421089     0.84600
O269        O  0.28623252  0.82685988  0.96121372    -0.79500
O270        O  0.30294580  0.88040195  0.95336243    -0.89700
C271        C  0.24274696  0.75762953  0.98875085     0.84200
O272        O  0.34492975  0.89928604  0.97648582    -0.67900
O273        O  0.21949853  0.81786489  0.02515895    -0.87200
C274        C  0.34550464  0.87484983  0.98297304     0.85000
C275        C  0.29878623  0.85043254  0.95151693     1.06600
H276        H  0.27787867  0.83407135  0.00693508     0.38400
O277        O  0.25870958  0.82923541  0.00069821    -1.09900
O278        O  0.21045088  0.85095935  0.99374766    -0.66500
Ni279      Ni  0.25898827  0.87127273  0.99868730     1.26300
O280        O  0.31828691  0.84801153  0.98708499    -0.66800
O281        O  0.24850809  0.87340965  0.01867873    -0.79000
C282        C  0.29355453  0.94055454  0.99316927     0.84400
O283        O  0.26369660  0.91543653  0.99593982    -0.66200
Ni284      Ni  0.22022457  0.79062394  0.00910672     1.27400
Ni285      Ni  0.27126772  0.82661338  0.98100224     1.26100
H286        H  0.25025795  0.86242117  0.97293564     0.38900
O287        O  0.25712858  0.98218872  0.16784062    -0.81000
O288        O  0.09926320  0.93135603  0.17137518    -0.65700
O289        O  0.18757632  0.93987900  0.17577693    -1.12300
C290        C  0.16918529  0.90421817  0.12585543     1.05900
O291        O  0.07916557  0.88149134  0.16020167    -0.78900
O292        O  0.11684059  0.85476602  0.14993235    -0.66500
Ni293      Ni  0.22591094  0.98239981  0.18214899     1.34900
C294        C  0.13925398  0.85233323  0.15729926     0.84600
O295        O  0.14265814  0.94885615  0.19399555    -0.79500
O296        O  0.19914936  0.98665209  0.19739127    -0.89700
C297        C  0.07403742  0.90361309  0.16652571     0.84200
O298        O  0.21833635  0.01238936  0.17011339    -0.67900
O299        O  0.13858464  0.89865980  0.12733042    -0.87200
C300        C  0.19017515  0.01140091  0.16752578     0.85000
C301        C  0.16769664  0.97246374  0.20126477     1.06600
H302        H  0.15428860  0.94788730  0.14846654     0.38400
O303        O  0.14827238  0.92753688  0.15406709    -1.09900
O304        O  0.16693733  0.87837595  0.16198953    -0.66500
Ni305      Ni  0.18958634  0.92643585  0.15621596     1.26300
O306        O  0.16106793  0.98437130  0.16921559    -0.66800
O307        O  0.19058788  0.91338952  0.13636912    -0.79000
C308        C  0.25947809  0.95728307  0.16262739     0.84400
O309        O  0.23283614  0.92896590  0.15915703    -0.66200
Ni310      Ni  0.11031434  0.89137640  0.14412955     1.27400
Ni311      Ni  0.14401263  0.93712468  0.17399960     1.26100
H312        H  0.18507392  0.92216961  0.18236596     0.38900
O313        O  0.41267053  0.90297971  0.32554723    -0.81000
O314        O  0.57054996  0.01369288  0.32282641    -0.65700
O315        O  0.48236521  0.93218073  0.31885142    -1.12300
C316        C  0.50482329  0.91380663  0.36754010     1.05900
O317        O  0.59050814  0.98211473  0.33180350    -0.78900
O318        O  0.55300795  0.91607893  0.34167759    -0.66500
Ni319      Ni  0.44412251  0.93379558  0.31122838     1.34900
C320        C  0.52746533  0.89086653  0.33542929     0.84600
O321        O  0.52748468  0.98450577  0.30058312    -0.79500
O322        O  0.47153039  0.96442794  0.29581930    -0.89700
C323        C  0.59582464  0.00997320  0.32606222     0.84200
O324        O  0.44976969  0.97074110  0.32297417    -0.67900
O325        O  0.53544257  0.93868861  0.36551082    -0.87200
C326        C  0.47646246  0.99886154  0.32629940     0.85000
C327        C  0.50332806  0.98079547  0.29231224     1.06600
H328        H  0.51810102  0.97540763  0.34638433     0.38400
O329        O  0.52242705  0.96035243  0.34039396    -1.09900
O330        O  0.50019357  0.89104744  0.33228807    -0.66500
Ni331      Ni  0.48022653  0.91757943  0.33849465     1.26300
O332        O  0.50696863  0.00379483  0.32513761    -0.66800
O333        O  0.48060333  0.90334364  0.35816785    -0.79000
C334        C  0.41045776  0.87595282  0.33076105     0.84400
O335        O  0.43687605  0.87611930  0.33562862    -0.66200
Ni336      Ni  0.56131893  0.96014166  0.34837236     1.27400
Ni337      Ni  0.52559920  0.97383999  0.32058032     1.26100
H338        H  0.48575476  0.91708674  0.31246335     0.38900
O339        O  0.53430292  0.15798823  0.16104901    -0.81000
O340        O  0.58780318  0.05190196  0.16095005    -0.65700
O341        O  0.57785619  0.13091565  0.16561783    -1.12300
C342        C  0.61846193  0.15125607  0.11673206     1.05900
O343        O  0.64019708  0.08620522  0.15280307    -0.78900
O344        O  0.66628130  0.15254371  0.14443296    -0.66500
Ni345      Ni  0.53716180  0.12659595  0.17414236     1.34900
C346        C  0.66379221  0.17755639  0.14931707     0.84600
O347        O  0.57248803  0.07840312  0.18360505    -0.79500
O348        O  0.53491500  0.09541515  0.18884032    -0.89700
C349        C  0.61779343  0.05746938  0.15813854     0.84200
O350        O  0.50682830  0.09015634  0.16188698    -0.67900
O351        O  0.62950974  0.13090817  0.11956608    -0.87200
C352        C  0.50665507  0.06327702  0.15776561     0.85000
C353        C  0.55111427  0.08007621  0.19205122     1.06600
H354        H  0.57303836  0.08824420  0.13782535     0.38400
O355        O  0.59167884  0.10451070  0.14394731    -1.09900
O356        O  0.63506823  0.17593742  0.15099539    -0.66500
Ni357      Ni  0.58825151  0.14480573  0.14563965     1.26300
O358        O  0.53275518  0.05933834  0.15880390    -0.66800
O359        O  0.60085885  0.15822588  0.12560446    -0.79000
C360        C  0.55631294  0.18315868  0.15355595     0.84400
O361        O  0.58243460  0.18366505  0.14805118    -0.66200
Ni362      Ni  0.63314381  0.10863457  0.13649136     1.27400
Ni363      Ni  0.58128860  0.09042063  0.16364513     1.26100
H364        H  0.59680204  0.14697326  0.17166463     0.38900
O365        O  0.14665918  0.53502469  0.32542954    -0.81000
O366        O  0.04735314  0.58975695  0.32387733    -0.65700
O367        O  0.12860404  0.58431270  0.31981457    -1.12300
C368        C  0.15305434  0.62586981  0.36729769     1.05900
O369        O  0.07665371  0.64136101  0.33418793    -0.78900
O370        O  0.14617329  0.66726124  0.33511047    -0.66500
Ni371      Ni  0.12829988  0.54773799  0.30936756     1.34900
C372        C  0.17336773  0.66558688  0.33385846     0.84600
O373        O  0.07528692  0.57562608  0.30123074    -0.79500
O374        O  0.11060324  0.55830993  0.29249900    -0.89700
C375        C  0.04946394  0.61753793  0.32817557     0.84200
O376        O  0.08317412  0.51209174  0.31456453    -0.67900
O377        O  0.13967487  0.64310324  0.36276956    -0.87200
C378        C  0.05908898  0.51110973  0.32211408     0.85000
C379        C  0.08797825  0.56698488  0.29074010     1.06600
H380        H  0.08373649  0.57892122  0.34759079     0.38400
O381        O  0.10074874  0.59653131  0.34134111    -1.09900
O382        O  0.17372929  0.63815587  0.33634765    -0.66500
Ni383      Ni  0.14003601  0.59096697  0.34008457     1.26300
O384        O  0.05889334  0.53780209  0.32650934    -0.66800
O385        O  0.15083525  0.60007903  0.36046332    -0.79000
C386        C  0.17446553  0.55593635  0.33189414     0.84400
O387        O  0.17765211  0.58289868  0.33782187    -0.66200
Ni388      Ni  0.10839282  0.64002762  0.34786336     1.27400
Ni389      Ni  0.08731769  0.58576848  0.32141807     1.26100
H390        H  0.14483647  0.60488705  0.31469023     0.38900
O391        O  0.90363000  0.41912027  0.15817946    -0.81000
O392        O  0.01085161  0.57590499  0.16027190    -0.65700
O393        O  0.92989406  0.48804805  0.16531019    -1.12300
C394        C  0.90546189  0.51098233  0.11773741     1.05900
O395        O  0.97697229  0.59551787  0.15384538    -0.78900
O396        O  0.91004048  0.55734579  0.14509310    -0.66500
Ni397      Ni  0.93102285  0.45017291  0.17351831     1.34900
C398        C  0.88487911  0.53082308  0.15072880     0.84600
O399        O  0.98610414  0.53283083  0.18259605    -0.79500
O400        O  0.95780447  0.47782811  0.18982035    -0.89700
C401        C  0.00572690  0.60085705  0.15866710     0.84200
O402        O  0.97133320  0.45709533  0.16384657    -0.67900
O403        O  0.92968523  0.54189225  0.11999458    -0.87200
C404        C  0.99671670  0.48265366  0.15785051     0.85000
C405        C  0.97858754  0.50981538  0.19215525     1.06600
H406        H  0.96949399  0.52487232  0.13716328     0.38400
O407        O  0.95490572  0.52832860  0.14383235    -1.09900
O408        O  0.88513653  0.50320294  0.15288324    -0.66500
Ni409      Ni  0.91322079  0.48537668  0.14591298     1.26300
O410        O  0.99959229  0.51215002  0.15666123    -0.66800
O411        O  0.89706053  0.48601986  0.12654127    -0.79000
C412        C  0.87553321  0.41508418  0.15315525     0.84400
O413        O  0.87348410  0.44068707  0.14879619    -0.66200
Ni414      Ni  0.95329358  0.56712433  0.13710795     1.27400
Ni415      Ni  0.97142677  0.53106634  0.16307611     1.26100
H416        H  0.91557923  0.49222367  0.17184514     0.38900
O417        O  0.51482724  0.64656966  0.32177926    -0.81000
O418        O  0.46688773  0.49274037  0.32258554    -0.65700
O419        O  0.46776166  0.57672423  0.31696720    -1.12300
C420        C  0.43295647  0.56441369  0.36578612     1.05900
O421        O  0.41693018  0.46949563  0.33428433    -0.78900
O422        O  0.38617232  0.50775145  0.33750846    -0.66500
Ni423      Ni  0.50336118  0.61359932  0.30628301     1.34900
C424        C  0.38597039  0.53471599  0.33376374     0.84600
O425        O  0.47694515  0.53141481  0.29908580    -0.79500
O426        O  0.49422678  0.58371274  0.28992633    -0.89700
C427        C  0.44035655  0.46675229  0.32775864     0.84200
O428        O  0.54091614  0.60810691  0.31201920    -0.67900
O429        O  0.41950986  0.53240716  0.36316345    -0.87200
C430        C  0.54327223  0.58576798  0.31941203     0.85000
C431        C  0.48569387  0.55226078  0.28841884     1.06600
H432        H  0.47948358  0.54482816  0.34516931     0.38400
O433        O  0.45989775  0.54061857  0.33934447    -1.09900
O434        O  0.41297915  0.56434102  0.33354864    -0.66500
Ni435      Ni  0.46142046  0.58346437  0.33698820     1.26300
O436        O  0.51733686  0.55776579  0.32366860    -0.66800
O437        O  0.45345614  0.58805705  0.35716106    -0.79000
C438        C  0.49351568  0.65231798  0.32845495     0.84400
O439        O  0.46599966  0.62748797  0.33367387    -0.66200
Ni440      Ni  0.42015365  0.50324890  0.34810139     1.27400
Ni441      Ni  0.46863102  0.53539870  0.31936315     1.26100
H442        H  0.44674185  0.57058564  0.31181307     0.38900
O443        O  0.64107435  0.52110894  0.15962380    -0.81000
O444        O  0.48607424  0.47224805  0.15594421    -0.65700
O445        O  0.57038197  0.47468319  0.16364878    -1.12300
C446        C  0.56113600  0.43922016  0.11479513     1.05900
O447        O  0.46384803  0.42129682  0.14523782    -0.78900
O448        O  0.50324276  0.39130577  0.14224153    -0.66500
Ni449      Ni  0.60667257  0.51181313  0.17421928     1.34900
C450        C  0.53017979  0.39167463  0.14659128     0.84600
O451        O  0.52319843  0.48438623  0.18003863    -0.79500
O452        O  0.57574646  0.50555001  0.18986990    -0.89700
C453        C  0.46031778  0.44496816  0.15109240     0.84200
O454        O  0.60197195  0.54811610  0.16635845    -0.67900
O455        O  0.52884460  0.42564896  0.11691944    -0.87200
C456        C  0.57918068  0.54919773  0.15872892     0.85000
C457        C  0.54383513  0.49583468  0.19082149     1.06600
H458        H  0.53989564  0.48433421  0.13451658     0.38400
O459        O  0.53537989  0.46512208  0.14060978    -1.09900
O460        O  0.55930430  0.41914906  0.14761797    -0.66500
Ni461      Ni  0.57828117  0.46721941  0.14388741     1.26300
O462        O  0.55057876  0.52286130  0.15532844    -0.66800
O463        O  0.58417179  0.45865279  0.12393992    -0.79000
C464        C  0.64670134  0.49920508  0.15345120     0.84400
O465        O  0.62202445  0.47179000  0.14808077    -0.66200
Ni466      Ni  0.49851714  0.42515182  0.13169501     1.27400
Ni467      Ni  0.52872595  0.47476664  0.16019541     1.26100
H468        H  0.56431372  0.45418416  0.16913532     0.38900
O469        O  0.21306091  0.49248991  0.49520112    -0.81000
O470        O  0.26253708  0.38862549  0.49253187    -0.65700
O471        O  0.26044137  0.47089666  0.49940972    -1.12300
C472        C  0.29353789  0.49320399  0.45023423     1.05900
O473        O  0.31399299  0.41987809  0.48259227    -0.78900
O474        O  0.34292453  0.48794941  0.47677278    -0.66500
Ni475      Ni  0.22512381  0.47140103  0.51042641     1.34900
C476        C  0.34286317  0.51448954  0.48137873     0.84600
O477        O  0.25075822  0.41539223  0.51636441    -0.79500
O478        O  0.23497919  0.45080713  0.52640306    -0.89700
C479        C  0.29149880  0.39244414  0.48887356     0.84200
O480        O  0.18773205  0.42776855  0.50467013    -0.67900
O481        O  0.30539200  0.47314570  0.45215461    -0.87200
C482        C  0.18508628  0.40363818  0.49663454     0.85000
C483        C  0.24271813  0.42732304  0.52732946     1.06600
H484        H  0.24916937  0.42859382  0.47074299     0.38400
O485        O  0.26872304  0.44395976  0.47668190    -1.09900
O486        O  0.31537544  0.51541100  0.48321696    -0.66500
Ni487      Ni  0.26707246  0.48495023  0.47958313     1.26300
O488        O  0.21087589  0.40214319  0.49185131    -0.66800
O489        O  0.27559761  0.49838348  0.45956469    -0.79000
C490        C  0.23427413  0.52013846  0.48877676     0.84400
O491        O  0.26195108  0.52376557  0.48343904    -0.66200
Ni492      Ni  0.30798200  0.44657519  0.46777958     1.27400
Ni493      Ni  0.25961932  0.42887104  0.49635858     1.26100
H494        H  0.28147868  0.48579710  0.50463145     0.38900
O495        O  0.09560794  0.24935687  0.65675684    -0.81000
O496        O  0.24907761  0.35537033  0.66061667    -0.65700
O497        O  0.16549480  0.27190500  0.65296284    -1.12300
C498        C  0.17378994  0.23992687  0.69976702     1.05900
O499        O  0.27236718  0.32920527  0.67242761    -0.78900
O500        O  0.23229307  0.25873679  0.67039371    -0.66500
Ni501      Ni  0.12983389  0.27083681  0.64171546     1.34900
C502        C  0.20467058  0.23045088  0.66783802     0.84600
O503        O  0.21164036  0.32909311  0.63654406    -0.79500
O504        O  0.16130106  0.29168724  0.62591822    -0.89700
C505        C  0.27501953  0.35529318  0.66592922     0.84200
O506        O  0.13641971  0.31462526  0.64713061    -0.67900
O507        O  0.20588141  0.25725089  0.69696966    -0.87200
C508        C  0.15738513  0.33867551  0.65545095     0.85000
C509        C  0.19225172  0.31684879  0.62538241     1.06600
H510        H  0.19677057  0.31298659  0.68238837     0.38400
O511        O  0.20038482  0.29799868  0.67603053    -1.09900
O512        O  0.17496886  0.22711120  0.66875960    -0.66500
Ni513      Ni  0.15700260  0.25696110  0.67264333     1.26300
O514        O  0.18351078  0.33947005  0.66117868    -0.66800
O515        O  0.15103088  0.24223237  0.69248451    -0.79000
C516        C  0.08858876  0.22154954  0.66306114     0.84400
O517        O  0.11260799  0.21808539  0.66841833    -0.66200
Ni518      Ni  0.23664925  0.29297292  0.68399574     1.27400
Ni519      Ni  0.20658547  0.31428785  0.65642687     1.26100
H520        H  0.17219198  0.25766575  0.64768040     0.38900
O521        O  0.31655654  0.85547623  0.49482624    -0.81000
O522        O  0.16225728  0.80988907  0.49760740    -0.65700
O523        O  0.24778466  0.81336641  0.50259054    -1.12300
C524        C  0.22235491  0.76568806  0.45479608     1.05900
O525        O  0.14047668  0.75551208  0.49148743    -0.78900
O526        O  0.17549857  0.72390201  0.48238536    -0.66500
Ni527      Ni  0.28699804  0.85195721  0.51073277     1.34900
C528        C  0.20184817  0.72472099  0.48773130     0.84600
O529        O  0.20538746  0.82730764  0.52007744    -0.79500
O530        O  0.26038751  0.85081923  0.52737205    -0.89700
C531        C  0.13636398  0.78004824  0.49576048     0.84200
O532        O  0.28145240  0.88686535  0.50203322    -0.67900
O533        O  0.19162775  0.75882626  0.45740042    -0.87200
C534        C  0.25668621  0.88762331  0.49593712     0.85000
C535        C  0.22876986  0.84120612  0.52974068     1.06600
H536        H  0.21157123  0.81700891  0.47449808     0.38400
O537        O  0.20748837  0.79887248  0.48117377    -1.09900
O538        O  0.23004865  0.75249279  0.48996548    -0.66500
Ni539      Ni  0.24941031  0.79877154  0.48317364     1.26300
O540        O  0.22687713  0.86114334  0.49414638    -0.66800
O541        O  0.24773004  0.78172076  0.46362735    -0.79000
C542        C  0.31959642  0.83077165  0.48991812     0.84400
O543        O  0.29327108  0.80253605  0.48609890    -0.66200
Ni544      Ni  0.16748101  0.75845139  0.47460909     1.27400
Ni545      Ni  0.20598381  0.81361911  0.50045661     1.26100
H546        H  0.24275323  0.79462596  0.50907457     0.38900
O547        O  0.19554195  0.98868195  0.66340437    -0.81000
O548        O  0.14689716  0.83381178  0.66209858    -0.65700
O549        O  0.15243487  0.91979202  0.65613855    -1.12300
C550        C  0.10406082  0.89955390  0.70345504     1.05900
O551        O  0.09313956  0.81256149  0.66920445    -0.78900
O552        O  0.06280042  0.84964049  0.67607120    -0.66500
Ni553      Ni  0.19181794  0.95800163  0.64799572     1.34900
C554        C  0.06402395  0.87584824  0.67045228     0.84600
O555        O  0.16413904  0.87527745  0.63918999    -0.79500
O556        O  0.19067932  0.93030546  0.63180481    -0.89700
C557        C  0.11707928  0.80822681  0.66426747     0.84200
O558        O  0.22573827  0.95219702  0.65756505    -0.67900
O559        O  0.09655845  0.86846633  0.70154020    -0.87200
C560        C  0.22581945  0.92721410  0.66371916     0.85000
C561        C  0.17928473  0.89834368  0.62953978     1.06600
H562        H  0.15581696  0.88523960  0.68475025     0.38400
O563        O  0.13755997  0.88098870  0.67806313    -1.09900
O564        O  0.09203481  0.90402071  0.66859061    -0.66500
Ni565      Ni  0.13841394  0.92324909  0.67537117     1.26300
O566        O  0.19903947  0.89752480  0.66503976    -0.66800
O567        O  0.12195707  0.92404351  0.69461133    -0.79000
C568        C  0.17120857  0.99270337  0.66802040     0.84400
O569        O  0.14271866  0.96693456  0.67184067    -0.66200
Ni570      Ni  0.09662674  0.84222394  0.68512537     1.27400
Ni571      Ni  0.15143437  0.87759644  0.65880787     1.26100
H572        H  0.13382553  0.91495933  0.64955533     0.38900
O573        O  0.58207656  0.75538952  0.49108047    -0.81000
O574        O  0.68521446  0.91370789  0.49562652    -0.65700
O575        O  0.60515940  0.82414261  0.49868289    -1.12300
C576        C  0.58516696  0.84879480  0.45111769     1.05900
O577        O  0.65096379  0.93281244  0.48913080    -0.78900
O578        O  0.58357593  0.89227687  0.48144588    -0.66500
Ni579      Ni  0.60707684  0.78637919  0.50680807     1.34900
C580        C  0.55799223  0.86278716  0.48422830     0.84600
O581        O  0.65939259  0.86870795  0.51715336    -0.79500
O582        O  0.63183531  0.81320346  0.52355946    -0.89700
C583        C  0.67979141  0.93846651  0.49401806     0.84200
O584        O  0.64849800  0.79547351  0.49758192    -0.67900
O585        O  0.60293551  0.88020881  0.45517418    -0.87200
C586        C  0.67384102  0.82181533  0.49200508     0.85000
C587        C  0.65209520  0.84503371  0.52631288     1.06600
H588        H  0.64834110  0.86640239  0.47148400     0.38400
O589        O  0.63190142  0.86707519  0.47803974    -1.09900
O590        O  0.55969597  0.83564432  0.48400903    -0.66500
Ni591      Ni  0.59217396  0.82221734  0.47872460     1.26300
O592        O  0.67608992  0.85110518  0.49124674    -0.66800
O593        O  0.58032325  0.82316036  0.45877944    -0.79000
C594        C  0.55488255  0.75106702  0.48502212     0.84400
O595        O  0.55340335  0.77657673  0.48025467    -0.66200
Ni596      Ni  0.62682735  0.90481918  0.47240161     1.27400
Ni597      Ni  0.64627740  0.86822169  0.49750438     1.26100
H598        H  0.58914776  0.82702403  0.50467219     0.38900
O599        O  0.83018753  0.88375447  0.66046687    -0.81000
O600        O  0.72291590  0.92698531  0.65795929    -0.65700
O601        O  0.80750265  0.92822492  0.65320740    -1.12300
C602        C  0.82901651  0.97265118  0.70092112     1.05900
O603        O  0.75260628  0.98085646  0.66568669    -0.78900
O604        O  0.82211385  0.01422295  0.67093134    -0.66500
Ni605      Ni  0.80937755  0.89166867  0.64391977     1.34900
C606        C  0.84929471  0.01376148  0.66759183     0.84600
O607        O  0.75073616  0.91163873  0.63543691    -0.79500
O608        O  0.78857105  0.89730747  0.62682665    -0.89700
C609        C  0.72443676  0.95497829  0.66144554     0.84200
O610        O  0.76590101  0.85464305  0.64992739    -0.67900
O611        O  0.80947177  0.98422160  0.69734983    -0.87200
C612        C  0.74131409  0.85248678  0.65747162     0.85000
C613        C  0.76328986  0.90225211  0.62514789     1.06600
H614        H  0.76465609  0.92224477  0.68125865     0.38400
O615        O  0.77972842  0.94027286  0.67466183    -1.09900
O616        O  0.85109237  0.98659801  0.66795920    -0.66500
Ni617      Ni  0.82139757  0.93925643  0.67310063     1.26300
O618        O  0.73940053  0.87848255  0.66153286    -0.66800
O619        O  0.83426857  0.95230144  0.69304989    -0.79000
C620        C  0.85841096  0.90679526  0.66597526     0.84400
O621        O  0.86117083  0.93463928  0.67064654    -0.66200
Ni622      Ni  0.78153347  0.98118289  0.68115539     1.27400
Ni623      Ni  0.76447624  0.92591021  0.65517594     1.26100
H624        H  0.82187265  0.94829307  0.64739872     0.38900
O625        O  0.74814450  0.58541198  0.99221427    -0.81000
O626        O  0.90854895  0.68996357  0.99313656    -0.65700
O627        O  0.81811052  0.61284588  0.98728767    -1.12300
C628        C  0.83240432  0.59183572  0.03705837     1.05900
O629        O  0.92256107  0.65450484  0.00304078    -0.78900
O630        O  0.88076123  0.59064901  0.01392268    -0.66500
Ni631      Ni  0.78257625  0.61816544  0.97925314     1.34900
C632        C  0.85747112  0.56749160  0.00596323     0.84600
O633        O  0.86735056  0.66388599  0.96981818    -0.79500
O634        O  0.81317859  0.65080484  0.96496621    -0.89700
C635        C  0.93143883  0.68292538  0.99686731     0.84200
O636        O  0.78899106  0.65333892  0.99232258    -0.67900
O637        O  0.86266948  0.61797147  0.03596932    -0.87200
C638        C  0.81632230  0.68133581  0.99514697     0.85000
C639        C  0.84487983  0.66395355  0.96151447     1.06600
H640        H  0.85070296  0.65388213  0.01532253     0.38400
O641        O  0.85539285  0.63854949  0.00972173    -1.09900
O642        O  0.83306407  0.57032712  0.00075591    -0.66500
Ni643      Ni  0.81299660  0.59675769  0.00684451     1.26300
O644        O  0.84634379  0.68517197  0.99361251    -0.66800
O645        O  0.81048651  0.58067385  0.02661818    -0.79000
C646        C  0.74436148  0.55765735  0.99741035     0.84400
O647        O  0.76962803  0.55644896  0.00281747    -0.66200
Ni648      Ni  0.89143776  0.63625686  0.01926210     1.27400
Ni649      Ni  0.86238691  0.65264571  0.98990849     1.26100
H650        H  0.82079965  0.59738329  0.98084862     0.38900
O651        O  0.88396184  0.84181434  0.83325367    -0.81000
O652        O  0.92440882  0.72578989  0.82822821    -0.65700
O653        O  0.92131861  0.80797857  0.83367261    -1.12300
C654        C  0.95018706  0.82449685  0.78338795     1.05900
O655        O  0.97285909  0.75252373  0.81558330    -0.78900
O656        O  0.00181598  0.82050852  0.80912905    -0.66500
Ni657      Ni  0.88190495  0.80391426  0.84337146     1.34900
C658        C  0.00251764  0.84705748  0.81429663     0.84600
O659        O  0.91809162  0.75705997  0.85146954    -0.79500
O660        O  0.87508012  0.76652065  0.85571491    -0.89700
C661        C  0.95141669  0.72735385  0.82328539     0.84200
O662        O  0.85209131  0.77329634  0.82897027    -0.67900
O663        O  0.96091214  0.80357704  0.78525292    -0.87200
C664        C  0.84782887  0.74379217  0.82636779     0.85000
C665        C  0.89447695  0.75514719  0.85959661     1.06600
H666        H  0.90641305  0.76172211  0.80588060     0.38400
O667        O  0.92712031  0.77774536  0.81104898    -1.09900
O668        O  0.97543619  0.84838417  0.81653921    -0.66500
Ni669      Ni  0.92702391  0.81986455  0.81338469     1.26300
O670        O  0.87163203  0.73669743  0.82851337    -0.66800
O671        O  0.93443954  0.83160980  0.79308998    -0.79000
C672        C  0.90329817  0.86403551  0.82399088     0.84400
O673        O  0.92510079  0.86086773  0.81637987    -0.66200
Ni674      Ni  0.96498934  0.77853555  0.80108019     1.27400
Ni675      Ni  0.92173468  0.76618339  0.83117446     1.26100
H676        H  0.94155913  0.82407277  0.83909232     0.38900
O677        O  0.85758617  0.33071593  0.99393457    -0.81000
O678        O  0.81274889  0.17713960  0.98814837    -0.65700
O679        O  0.81630793  0.26307859  0.98504365    -1.12300
C680        C  0.76633355  0.23324706  0.03216698     1.05900
O681        O  0.75788576  0.15404978  0.99394113    -0.78900
O682        O  0.72579186  0.18891082  0.00197748    -0.66500
Ni683      Ni  0.85538631  0.30307696  0.97761178     1.34900
C684        C  0.72769046  0.21658381  0.99779881     0.84600
O685        O  0.83218461  0.22311280  0.96678019    -0.79500
O686        O  0.85628175  0.27866668  0.96058863    -0.89700
C687        C  0.78280185  0.15093977  0.98928485     0.84200
O688        O  0.88954548  0.29678072  0.98659789    -0.67900
O689        O  0.75682915  0.20244411  0.02832051    -0.87200
C690        C  0.88988046  0.27143169  0.99224474     0.85000
C691        C  0.84772455  0.24760592  0.95775051     1.06600
H692        H  0.81797891  0.22289770  0.01237991     0.38400
O693        O  0.80052436  0.22026513  0.00555860    -1.09900
O694        O  0.75562647  0.24518828  0.99784935    -0.66500
Ni695      Ni  0.80155739  0.26290678  0.00467061     1.26300
O696        O  0.86345515  0.24139937  0.99322558    -0.66800
O697        O  0.78488584  0.25977580  0.02432097    -0.79000
C698        C  0.83245771  0.33331506  0.99855704     0.84400
O699        O  0.80511793  0.30678827  0.00280314    -0.66200
Ni700      Ni  0.75881569  0.17993962  0.01092371     1.27400
Ni701      Ni  0.81650526  0.22111830  0.98627050     1.26100
H702        H  0.79765705  0.25873459  0.97857600     0.38900
O703        O  0.00251503  0.20410666  0.82774870    -0.81000
O704        O  0.84298299  0.15585771  0.82998592    -0.65700
O705        O  0.93142119  0.16413298  0.83333554    -1.12300
C706        C  0.90653869  0.12271912  0.78439814     1.05900
O707        O  0.82267507  0.10344199  0.82144864    -0.78900
O708        O  0.85999259  0.07619664  0.81064632    -0.66500
Ni709      Ni  0.96936528  0.20572887  0.84059821     1.34900
C710        C  0.88572163  0.07700128  0.81664946     0.84600
O711        O  0.88661657  0.17087354  0.85188841    -0.79500
O712        O  0.94153069  0.21167464  0.85516030    -0.89700
C713        C  0.81773893  0.12595379  0.82752728     0.84200
O714        O  0.96347514  0.23400454  0.82708384    -0.67900
O715        O  0.87583991  0.11597283  0.78689801    -0.87200
C716        C  0.93642752  0.23541637  0.82494339     0.85000
C717        C  0.91027135  0.19460261  0.85945470     1.06600
H718        H  0.89404044  0.17022881  0.80618729     0.38400
O719        O  0.89015908  0.15098135  0.81211473    -1.09900
O720        O  0.91328573  0.10478607  0.81963645    -0.66500
Ni721      Ni  0.93252464  0.15149466  0.81350345     1.26300
O722        O  0.90622794  0.20997005  0.82736410    -0.66800
O723        O  0.93116395  0.13681594  0.79362671    -0.79000
C724        C  0.00319415  0.18010299  0.82068096     0.84400
O725        O  0.97601590  0.15448222  0.81563579    -0.66200
Ni726      Ni  0.85087906  0.11121316  0.80440798     1.27400
Ni727      Ni  0.88789063  0.16154040  0.83192217     1.26100
H728        H  0.92869737  0.14594626  0.83968742     0.38900
O729        O  0.49066678  0.21984677  0.98503726    -0.81000
O730        O  0.38259976  0.26390288  0.98791347    -0.65700
O731        O  0.46684564  0.26540927  0.98104579    -1.12300
C732        C  0.49373598  0.30426915  0.02896072     1.05900
O733        O  0.41108181  0.31547473  0.99834747    -0.78900
O734        O  0.48071505  0.34651167  0.99925645    -0.66500
Ni735      Ni  0.46852075  0.23083564  0.96993074     1.34900
C736        C  0.50847505  0.34686702  0.99641714     0.84600
O737        O  0.40925364  0.25219602  0.96404515    -0.79500
O738        O  0.44684453  0.23941568  0.95399901    -0.89700
C739        C  0.38396837  0.29115394  0.99253824     0.84200
O740        O  0.42551084  0.19292333  0.97579435    -0.67900
O741        O  0.47655931  0.31876388  0.02590859    -0.87200
C742        C  0.40138272  0.18946903  0.98405695     0.85000
C743        C  0.42183799  0.24492102  0.95305259     1.06600
H744        H  0.42449675  0.25526303  0.01002866     0.38400
O745        O  0.43971486  0.27394492  0.00372338    -1.09900
O746        O  0.51109806  0.32025997  0.99730926    -0.66500
Ni747      Ni  0.48091605  0.27228404  0.00097007     1.26300
O748        O  0.39925911  0.21470538  0.98906976    -0.66800
O749        O  0.49415456  0.28116012  0.02105387    -0.79000
C750        C  0.51835743  0.24163872  0.99131361     0.84400
O751        O  0.52053443  0.26809229  0.99729477    -0.66200
Ni752      Ni  0.44397519  0.31508961  0.01154402     1.27400
Ni753      Ni  0.42391317  0.26301332  0.98404777     1.26100
H754        H  0.48124109  0.28654344  0.97586560     0.38900
O755        O  0.24851425  0.08384019  0.82190771    -0.81000
O756        O  0.35396179  0.24067366  0.81969770    -0.65700
O757        O  0.27213180  0.15397773  0.82546052    -1.12300
C758        C  0.25022376  0.16102111  0.77594679     1.05900
O759        O  0.32809503  0.26100819  0.80588557    -0.78900
O760        O  0.25875229  0.21977242  0.80261879    -0.66500
Ni761      Ni  0.27231583  0.11853755  0.83653022     1.34900
C762        C  0.23179780  0.19299036  0.80708103     0.84600
O763        O  0.32466612  0.20317591  0.84323233    -0.79500
O764        O  0.29532567  0.14980346  0.85238046    -0.89700
C765        C  0.35278705  0.26567196  0.81410188     0.84200
O766        O  0.31433770  0.12428819  0.82916331    -0.67900
O767        O  0.26918273  0.19329917  0.77788520    -0.87200
C768        C  0.34032775  0.14856319  0.82287752     0.85000
C769        C  0.31512720  0.18219960  0.85383675     1.06600
H770        H  0.31719345  0.18489569  0.79742539     0.38400
O771        O  0.30107250  0.18903566  0.80270334    -1.09900
O772        O  0.22967068  0.16393723  0.80822319    -0.66500
Ni773      Ni  0.25944721  0.14556473  0.80540638     1.26300
O774        O  0.34322547  0.17747221  0.81997925    -0.66800
O775        O  0.24689092  0.13868973  0.78522285    -0.79000
C776        C  0.22101007  0.07774598  0.81557770     0.84400
O777        O  0.21943005  0.10175587  0.80919765    -0.66200
Ni778      Ni  0.29831626  0.22462886  0.79265159     1.27400
Ni779      Ni  0.31379622  0.19675506  0.82288474     1.26100
H780        H  0.25629921  0.15904748  0.83042943     0.38900
O781        O  0.65609421  0.59742472  0.65390319    -0.81000
O782        O  0.59513335  0.43994776  0.64656688    -0.65700
O783        O  0.60901224  0.53046541  0.64411390    -1.12300
C784        C  0.57020678  0.50923717  0.69343812     1.05900
O785        O  0.54503949  0.42068799  0.65741013    -0.78900
O786        O  0.52049661  0.46050315  0.66644565    -0.66500
Ni787      Ni  0.65202733  0.56789128  0.63777400     1.34900
C788        C  0.52150498  0.48598988  0.66021964     0.84600
O789        O  0.61507095  0.48550771  0.62485672    -0.79500
O790        O  0.65160446  0.54209528  0.62097174    -0.89700
C791        C  0.56707352  0.41513857  0.65131525     0.84200
O792        O  0.68232055  0.55640564  0.64752150    -0.67900
O793        O  0.56009890  0.47764612  0.69099859    -0.87200
C794        C  0.67887389  0.52739098  0.65053266     0.85000
C795        C  0.63697080  0.51054453  0.61711174     1.06600
H796        H  0.61276333  0.49190740  0.67074641     0.38400
O797        O  0.59334766  0.48847226  0.66500001    -1.09900
O798        O  0.54916828  0.51440095  0.65794580    -0.66500
Ni799      Ni  0.59641154  0.53209008  0.66381593     1.26300
O800        O  0.64999327  0.49966031  0.64990584    -0.66800
O801        O  0.58381384  0.53258258  0.68376461    -0.79000
C802        C  0.63269466  0.60225833  0.65914961     0.84400
O803        O  0.60279938  0.57704660  0.66170887    -0.66200
Ni804      Ni  0.55410534  0.45086588  0.67376040     1.27400
Ni805      Ni  0.60335159  0.48570354  0.64492399     1.26100
H806        H  0.59150812  0.52938797  0.63772413     0.38900
O807        O  0.58616966  0.64595535  0.83639174    -0.81000
O808        O  0.43489070  0.59756920  0.83195461    -0.65700
O809        O  0.51679126  0.59684653  0.84071271    -1.12300
C810        C  0.51017679  0.55954576  0.79283478     1.05900
O811        O  0.41104507  0.54723816  0.82045197    -0.78900
O812        O  0.44994950  0.51769456  0.82329376    -0.66500
Ni813      Ni  0.55238052  0.63346214  0.85157016     1.34900
C814        C  0.47628632  0.51545930  0.82602620     0.84600
O815        O  0.47201497  0.61211189  0.85624362    -0.79500
O816        O  0.52100510  0.62329765  0.86741121    -0.89700
C817        C  0.40871006  0.57129337  0.82668810     0.84200
O818        O  0.54532865  0.67049114  0.84606921    -0.67900
O819        O  0.47816040  0.54154243  0.79601566    -0.87200
C820        C  0.52401263  0.67231665  0.83763331     0.85000
C821        C  0.49202897  0.62194086  0.86727110     1.06600
H822        H  0.48696001  0.60585456  0.81093133     0.38400
O823        O  0.48278048  0.58733638  0.81739949    -1.09900
O824        O  0.50694329  0.54088369  0.82452382    -0.66500
Ni825      Ni  0.52565999  0.58995743  0.82105548     1.26300
O826        O  0.49998381  0.64600691  0.83131760    -0.66800
O827        O  0.53224119  0.58320483  0.80108763    -0.79000
C828        C  0.59398138  0.62563683  0.83009624     0.84400
O829        O  0.57034700  0.59664192  0.82535279    -0.66200
Ni830      Ni  0.44680340  0.54629144  0.80908300     1.27400
Ni831      Ni  0.47635802  0.59852762  0.83677589     1.26100
H832        H  0.50994446  0.57605779  0.84611298     0.38900
O833        O  0.43966281  0.99665257  0.83856295    -0.81000
O834        O  0.48480087  0.88904581  0.84079733    -0.65700
O835        O  0.48510104  0.97326246  0.84495982    -1.12300
C836        C  0.51116279  0.98249576  0.79430356     1.05900
O837        O  0.53432709  0.91573963  0.82916678    -0.78900
O838        O  0.56445897  0.98165016  0.82026657    -0.66500
Ni839      Ni  0.44864821  0.97501309  0.85461764     1.34900
C840        C  0.56702834  0.00872527  0.82571456     0.84600
O841        O  0.47382850  0.91920733  0.86375313    -0.79500
O842        O  0.45509312  0.95438226  0.87149157    -0.89700
C843        C  0.51069111  0.88897897  0.83537720     0.84200
O844        O  0.41062380  0.93072634  0.84910878    -0.67900
O845        O  0.52187013  0.96171207  0.79678550    -0.87200
C846        C  0.40903295  0.90413946  0.84348349     0.85000
C847        C  0.46116049  0.92999764  0.87346778     1.06600
H848        H  0.47053675  0.92629712  0.81801217     0.38400
O849        O  0.49129870  0.94184045  0.82326572    -1.09900
O850        O  0.54135971  0.01263958  0.82816248    -0.66500
Ni851      Ni  0.49220705  0.98432187  0.82468634     1.26300
O852        O  0.43543789  0.90292933  0.83963850    -0.66800
O853        O  0.49917944  0.99356447  0.80418616    -0.79000
C854        C  0.46201468  0.02312691  0.83170806     0.84400
O855        O  0.48943887  0.02505153  0.82694656    -0.66200
Ni856      Ni  0.52699151  0.93930003  0.81343250     1.27400
Ni857      Ni  0.48368570  0.93046736  0.84344972     1.26100
H858        H  0.50589079  0.98888307  0.85018264     0.38900
O859        O  0.48240419  0.09095142  0.65319437    -0.81000
O860        O  0.63712006  0.19487196  0.65223147    -0.65700
O861        O  0.55100408  0.11261445  0.64594927    -1.12300
C862        C  0.56428451  0.08808643  0.69461900     1.05900
O863        O  0.65905120  0.16647055  0.66289726    -0.78900
O864        O  0.62064729  0.09873789  0.66611301    -0.66500
Ni865      Ni  0.51346139  0.11372447  0.63721242     1.34900
C866        C  0.59462757  0.07201647  0.66110262     0.84600
O867        O  0.59556058  0.17011833  0.62894261    -0.79500
O868        O  0.54136050  0.13613556  0.62059170    -0.89700
C869        C  0.66275827  0.19369464  0.65720273     0.84200
O870        O  0.52190259  0.15751571  0.64414113    -0.67900
O871        O  0.59654552  0.10697834  0.69222667    -0.87200
C872        C  0.54722679  0.18272562  0.65049489     0.85000
C873        C  0.57233172  0.16085928  0.61914909     1.06600
H874        H  0.58442760  0.15336796  0.67449529     0.38400
O875        O  0.58868841  0.13862295  0.66826608    -1.09900
O876        O  0.56441857  0.06791330  0.66073605    -0.66500
Ni877      Ni  0.54553319  0.09720017  0.66557223     1.26300
O878        O  0.57391327  0.18203572  0.65431375    -0.66800
O879        O  0.54135040  0.08355818  0.68539840    -0.79000
C880        C  0.47608145  0.06257032  0.65876143     0.84400
O881        O  0.50072635  0.05799532  0.66221373    -0.66200
Ni882      Ni  0.62580608  0.13669125  0.67700163     1.27400
Ni883      Ni  0.59341420  0.15457402  0.64864859     1.26100
H884        H  0.55568081  0.09785512  0.63992544     0.38900
O885        O  0.08122532  0.48529937  0.84103987    -0.81000
O886        O  0.19270615  0.64431412  0.84281797    -0.65700
O887        O  0.11000132  0.55680613  0.84688468    -1.12300
C888        C  0.08956227  0.57380637  0.79818284     1.05900
O889        O  0.16930284  0.66852050  0.82995820    -0.78900
O890        O  0.10062933  0.62942359  0.82838578    -0.66500
Ni891      Ni  0.11329695  0.51898714  0.85450710     1.34900
C892        C  0.07279007  0.60285993  0.83215309     0.84600
O893        O  0.16461332  0.60273218  0.86524716    -0.79500
O894        O  0.14470674  0.54688264  0.86939274    -0.89700
C895        C  0.19395032  0.67073569  0.83748641     0.84200
O896        O  0.15076400  0.52515767  0.84252319    -0.67900
O897        O  0.10605161  0.60566450  0.80144580    -0.87200
C898        C  0.17804745  0.55285084  0.83909415     0.85000
C899        C  0.16268034  0.57841269  0.87288704     1.06600
H900        H  0.15486047  0.59315955  0.81931320     0.38400
O901        O  0.13911565  0.59675383  0.82516523    -1.09900
O902        O  0.06787736  0.57245635  0.83120289    -0.66500
Ni903      Ni  0.09719984  0.55337875  0.82685838     1.26300
O904        O  0.18107730  0.58226452  0.84040808    -0.66800
O905        O  0.08651250  0.55057214  0.80678082    -0.79000
C906        C  0.05631699  0.48291412  0.83369080     0.84400
O907        O  0.05637691  0.50922556  0.82892575    -0.66200
Ni908      Ni  0.13725748  0.63430523  0.81655088     1.27400
Ni909      Ni  0.15197168  0.60046183  0.84520178     1.26100
H910        H  0.09398559  0.55972863  0.85287049     0.38900
O911        O  0.99295552  0.43003841  0.65735914    -0.81000
O912        O  0.89329817  0.48521800  0.65009259    -0.65700
O913        O  0.97329437  0.47668256  0.64809756    -1.12300
C914        C  0.98447908  0.50884239  0.69819867     1.05900
O915        O  0.92021687  0.53324360  0.66279036    -0.78900
O916        O  0.98535353  0.55996060  0.67225710    -0.66500
Ni917      Ni  0.97013487  0.43565423  0.64080183     1.34900
C918        C  0.01126035  0.56105625  0.66623588     0.84600
O919        O  0.92379433  0.47102294  0.62817263    -0.79500
O920        O  0.94754987  0.43824512  0.62364391    -0.89700
C921        C  0.89362531  0.51074258  0.65607655     0.84200
O922        O  0.92655009  0.40245280  0.64882998    -0.67900
O923        O  0.96241156  0.51790514  0.69572519    -0.87200
C924        C  0.90014642  0.40449689  0.65181969     0.85000
C925        C  0.92978059  0.45176594  0.61990738     1.06600
H926        H  0.92659767  0.46680313  0.67414617     0.38400
O927        O  0.94296417  0.48735003  0.66903936    -1.09900
O928        O  0.01370025  0.53470566  0.66349398    -0.66500
Ni929      Ni  0.98499712  0.48660371  0.66813915     1.26300
O930        O  0.90076338  0.43283360  0.65216399    -0.66800
O931        O  0.99561822  0.49671305  0.68843345    -0.79000
C932        C  0.02133343  0.45334191  0.66270275     0.84400
O933        O  0.02531009  0.48247609  0.66611721    -0.66200
Ni934      Ni  0.94175161  0.52407529  0.67875809     1.27400
Ni935      Ni  0.93288284  0.48014246  0.64861387     1.26100
H936        H  0.99031128  0.49540286  0.64227225     0.38900
C937        C  0.04790031  0.57269833  0.76219175    -0.27700
C938        C  0.04251383  0.54184707  0.75602567     0.01900
C939        C  0.05250295  0.52158046  0.76378135     0.29900
C940        C  0.06765549  0.53223883  0.77749524    -0.19500
C941        C  0.07323725  0.56319778  0.78369194    -0.28900
C942        C  0.06298451  0.58338589  0.77592337     0.44000
C943        C  0.02663294  0.53118425  0.74145975     0.05200
O944        O  0.04745122  0.49124469  0.75805714    -0.57500
H945        H  0.07530587  0.51630120  0.78324538     0.18100
O946        O  0.06725481  0.61341955  0.78166332    -0.64200
H947        H  0.04053681  0.58867162  0.75628893     0.16600
C948        C  0.99415280  0.52717211  0.73863812     0.28800
C949        C  0.98019086  0.51847561  0.72465202    -0.25100
C950        C  0.99834609  0.51400053  0.71319402    -0.24300
C951        C  0.03068866  0.51743457  0.71614366     0.40300
C952        C  0.04445106  0.52579623  0.73019783    -0.26800
O953        O  0.97555265  0.53095372  0.74957909    -0.58700
H954        H  0.95519093  0.51571766  0.72275233     0.15900
O955        O  0.04961114  0.51375001  0.70533594    -0.60100
H956        H  0.06960855  0.52903616  0.73222525     0.14300
H957        H  0.04650266  0.60643216  0.78772013     0.46200
H958        H  0.97777317  0.55368345  0.74792480     0.41600
H959        H  0.06369008  0.53699592  0.70108547     0.45000
H960        H  0.02467044  0.47331270  0.76177677     0.36500
C961        C  0.75766234  0.25654587  0.66418914    -0.27700
C962        C  0.76454723  0.28289681  0.65440333     0.01900
C963        C  0.73812137  0.27940194  0.64510500     0.29900
C964        C  0.70508848  0.25017207  0.64601918    -0.19500
C965        C  0.69801612  0.22398028  0.65601790    -0.28900
C966        C  0.72494984  0.22725467  0.66500394     0.44000
C967        C  0.79937336  0.31397063  0.65426942     0.05200
O968        O  0.74479321  0.30372567  0.63471536    -0.57500
H969        H  0.68506741  0.24793087  0.63881208     0.18100
O970        O  0.71934299  0.20268676  0.67509498    -0.64200
H971        H  0.77768001  0.25893897  0.67144324     0.16600
C972        C  0.80384422  0.34688554  0.65626703     0.28800
C973        C  0.83686076  0.37580881  0.65607173    -0.25100
C974        C  0.86623250  0.37276405  0.65407895    -0.24300
C975        C  0.86176416  0.33955282  0.65280577     0.40300
C976        C  0.82855122  0.31057668  0.65285296    -0.26800
O977        O  0.77612033  0.35115786  0.65844931    -0.58700
H978        H  0.83924789  0.40082601  0.65721954     0.15900
O979        O  0.88942191  0.33501935  0.65101839    -0.60100
H980        H  0.82552633  0.28531653  0.65155800     0.14300
H981        H  0.72756827  0.18829014  0.67044016     0.46200
H982        H  0.77080121  0.34700902  0.66896151     0.41600
H983        H  0.89553650  0.33159811  0.66096385     0.45000
H984        H  0.73065613  0.31404075  0.63742279     0.36500
C985        C  0.52482851  0.99165154  0.75339291    -0.27700
C986        C  0.52574053  0.02262223  0.75085460     0.01900
C987        C  0.51936866  0.03919584  0.76240830     0.29900
C988        C  0.51337330  0.02530340  0.77642511    -0.19500
C989        C  0.51379356  0.99487911  0.77915288    -0.28900
C990        C  0.51865094  0.97758719  0.76732359     0.44000
C991        C  0.53497672  0.03821442  0.73625321     0.05200
O992        O  0.52000367  0.06952818  0.76018709    -0.57500
H993        H  0.50957046  0.03903592  0.78524469     0.18100
O994        O  0.51789474  0.94710311  0.76922511    -0.64200
H995        H  0.52921566  0.97843714  0.74452251     0.16600
C996        C  0.56765729  0.04878875  0.73034468     0.28800
C997        C  0.57675789  0.06501988  0.71683670    -0.25100
C998        C  0.55334275  0.07030207  0.70881211    -0.24300
C999        C  0.52008799  0.05853370  0.71456300     0.40300
C1000       C  0.51128139  0.04289940  0.72824235    -0.26800
O1001       O  0.59135652  0.04455773  0.73796886    -0.58700
H1002       H  0.60227633  0.07336666  0.71261879     0.15900
O1003       O  0.49608516  0.06242816  0.70702758    -0.60100
H1004       H  0.48588027  0.03442119  0.73263266     0.14300
H1005       H  0.49332784  0.92902146  0.76815095     0.46200
H1006       H  0.59029562  0.02381488  0.73370470     0.41600
H1007       H  0.49985337  0.08520491  0.71004831     0.45000
H1008       H  0.54455350  0.08773318  0.76115641     0.36500
C1009       C  0.33870469  0.81561471  0.83124164    -0.27700
C1010       C  0.31511960  0.80629513  0.84269152     0.01900
C1011       C  0.32137295  0.83002299  0.85391424     0.29900
C1012       C  0.35118477  0.86267920  0.85362266    -0.19500
C1013       C  0.37527449  0.87193686  0.84227737    -0.28900
C1014       C  0.36881343  0.84795026  0.83106086     0.44000
C1015       C  0.28351438  0.77206226  0.84246129     0.05200
O1016       O  0.29908298  0.82111242  0.86542484    -0.57500
H1017       H  0.35618468  0.88025851  0.86259612     0.18100
O1018       O  0.39162993  0.85602031  0.81979336    -0.64200
H1019       H  0.33389281  0.79756831  0.82248382     0.16600
C1020       C  0.25383985  0.76741633  0.83546305     0.28800
C1021       C  0.22473976  0.73455326  0.83434007    -0.25100
C1022       C  0.22466150  0.70553874  0.83998049    -0.24300
C1023       C  0.25452061  0.71048852  0.84722699     0.40300
C1024       C  0.28358016  0.74360578  0.84843843    -0.26800
O1025       O  0.25317379  0.79490501  0.82956212    -0.58700
H1026       H  0.20236147  0.73183056  0.82875146     0.15900
O1027       O  0.25581311  0.68328346  0.85306530    -0.60100
H1028       H  0.30648259  0.74701098  0.85380908     0.14300
H1029       H  0.40501223  0.84474096  0.82215309     0.46200
H1030       H  0.26166894  0.79664839  0.81946730     0.41600
H1031       H  0.26667037  0.67620006  0.84547722     0.45000
H1032       H  0.28138622  0.82659651  0.86229541     0.36500
C1033       C  0.26683256  0.57981154  0.82436251    -0.27700
C1034       C  0.27256044  0.55475271  0.83046172     0.01900
C1035       C  0.24566704  0.52709910  0.83804596     0.29900
C1036       C  0.21406356  0.52556865  0.83992547    -0.19500
C1037       C  0.20881576  0.55151830  0.83443598    -0.28900
C1038       C  0.23535262  0.57845097  0.82631878     0.44000
C1039       C  0.30726562  0.55881707  0.82948764     0.05200
O1040       O  0.25101959  0.50305986  0.84467912    -0.57500
H1041       H  0.19436036  0.50505470  0.84644483     0.18100
O1042       O  0.23082813  0.60362225  0.82029208    -0.64200
H1043       H  0.28716857  0.60097076  0.81832821     0.16600
C1044       C  0.31210101  0.53300325  0.82334940     0.28800
C1045       C  0.34507612  0.53737200  0.82270459    -0.25100
C1046       C  0.37402320  0.56756240  0.82798026    -0.24300
C1047       C  0.36907646  0.59355399  0.83408310     0.40300
C1048       C  0.33591677  0.58898032  0.83478401    -0.26800
O1049       O  0.28481282  0.50351151  0.81777892    -0.58700
H1050       H  0.34788840  0.51697217  0.81790533     0.15900
O1051       O  0.39622476  0.62324628  0.83960704    -0.60100
H1052       H  0.33251229  0.60901309  0.83960844     0.14300
H1053       H  0.24326064  0.62386755  0.82680377     0.46200
H1054       H  0.28205230  0.50931531  0.80768579     0.41600
H1055       H  0.40025698  0.64145859  0.83255931     0.45000
H1056       H  0.23644447  0.48128317  0.83929727     0.36500
C1057       C  0.49083817  0.79726057  0.84197053    -0.27700
C1058       C  0.52054585  0.79875009  0.83638570     0.01900
C1059       C  0.54713360  0.82990359  0.83080256     0.29900
C1060       C  0.54374985  0.85906657  0.83076884    -0.19500
C1061       C  0.51401257  0.85787480  0.83634410    -0.28900
C1062       C  0.48738167  0.82642439  0.84199885     0.44000
C1063       C  0.52315752  0.76738329  0.83610212     0.05200
O1064       O  0.57580088  0.83160559  0.82473177    -0.57500
H1065       H  0.56443443  0.88259695  0.82617298     0.18100
O1066       O  0.45779809  0.82370962  0.84752324    -0.64200
H1067       H  0.47016391  0.77329292  0.84627388     0.16600
C1068       C  0.54651360  0.76426982  0.84512418     0.28800
C1069       C  0.54762681  0.73379222  0.84503364    -0.25100
C1070       C  0.52570010  0.70597546  0.83593671    -0.24300
C1071       C  0.50279576  0.70969484  0.82665782     0.40300
C1072       C  0.50170032  0.74015168  0.82683279    -0.26800
O1073       O  0.56695402  0.79017159  0.85464420    -0.58700
H1074       H  0.56497231  0.73162540  0.85249193     0.15900
O1075       O  0.48120020  0.68376159  0.81739214    -0.60100
H1076       H  0.48377867  0.74243533  0.81976364     0.14300
H1077       H  0.44147045  0.81601906  0.83923856     0.46200
H1078       H  0.59048378  0.80114268  0.85047559     0.41600
H1079       H  0.45874371  0.67154086  0.82250178     0.45000
H1080       H  0.59459147  0.84449117  0.83185092     0.36500
C1081       C  0.57229571  0.33646447  0.64040172    -0.27700
C1082       C  0.55024862  0.31241950  0.65067564     0.01900
C1083       C  0.53198809  0.32147134  0.66036133     0.29900
C1084       C  0.53682167  0.35463373  0.66003852    -0.19500
C1085       C  0.55984565  0.37929419  0.65012360    -0.28900
C1086       C  0.57714274  0.36969337  0.64004174     0.44000
C1087       C  0.54810133  0.27869937  0.65172997     0.05200
O1088       O  0.51109825  0.29878412  0.67078602    -0.57500
H1089       H  0.52344069  0.36141331  0.66798207     0.18100
O1090       O  0.59840453  0.39234558  0.62968687    -0.64200
H1091       H  0.58618974  0.32956443  0.63277748     0.16600
C1092       C  0.51797026  0.24803412  0.64789313     0.28800
C1093       C  0.51742189  0.21670093  0.64826423    -0.25100
C1094       C  0.54667870  0.21526929  0.65254189    -0.24300
C1095       C  0.57654871  0.24624696  0.65684894     0.40300
C1096       C  0.57696728  0.27744646  0.65640228    -0.26800
O1097       O  0.48966354  0.24875403  0.64294094    -0.58700
H1098       H  0.49428749  0.19363400  0.64472238     0.15900
O1099       O  0.60587763  0.24667775  0.66116885    -0.60100
H1100       H  0.60022827  0.30095864  0.65949788     0.14300
H1101       H  0.62212526  0.40113247  0.63334252     0.46200
H1102       H  0.47266514  0.23930387  0.65097226     0.41600
H1103       H  0.62070613  0.25324794  0.65239612     0.45000
H1104       H  0.48723830  0.29069321  0.66749133     0.36500
C1105       C  0.80877976  0.50293073  0.64449949    -0.27700
C1106       C  0.80279310  0.51968961  0.65605756     0.01900
C1107       C  0.82682556  0.53363228  0.66745157     0.29900
C1108       C  0.85657832  0.53114439  0.66708245    -0.19500
C1109       C  0.86274936  0.51444217  0.65552377    -0.28900
C1110       C  0.83835084  0.50005661  0.64420694     0.44000
C1111       C  0.77118250  0.52211924  0.65612616     0.05200
O1112       O  0.82046085  0.54804651  0.67934704    -0.57500
H1113       H  0.87445258  0.54155141  0.67610593     0.18100
O1114       O  0.84354835  0.48394668  0.63263867    -0.64200
H1115       H  0.79044138  0.49208540  0.63564879     0.16600
C1116       C  0.77300367  0.55411775  0.65540845     0.28800
C1117       C  0.74272722  0.55557020  0.65426882    -0.25100
C1118       C  0.71013964  0.52535787  0.65398154    -0.24300
C1119       C  0.70853098  0.49331153  0.65536093     0.40300
C1120       C  0.73885247  0.49199335  0.65633860    -0.26800
O1121       O  0.80435778  0.58397964  0.65483187    -0.58700
H1122       H  0.74496325  0.58049087  0.65313427     0.15900
O1123       O  0.67756750  0.46296754  0.65552630    -0.60100
H1124       H  0.73712647  0.46721198  0.65705131     0.14300
H1125       H  0.82978220  0.45905511  0.63486717     0.46200
H1126       H  0.80665000  0.59575821  0.66424763     0.41600
H1127       H  0.67429907  0.45378876  0.64547552     0.45000
H1128       H  0.83798945  0.57288695  0.67898584     0.36500
C1129       C  0.54885512  0.55117227  0.72449201    -0.27700
C1130       C  0.55089476  0.53341750  0.73658723     0.01900
C1131       C  0.56065781  0.50857642  0.73441058     0.29900
C1132       C  0.56723891  0.50122982  0.72035612    -0.19500
C1133       C  0.56505357  0.51888767  0.70826139    -0.28900
C1134       C  0.55596813  0.54422016  0.71045906     0.44000
C1135       C  0.54180475  0.54026616  0.75131453     0.05200
O1136       O  0.56387734  0.49131282  0.74594992    -0.57500
H1137       H  0.57425707  0.48172852  0.71891751     0.18100
O1138       O  0.55279374  0.56154242  0.69892816    -0.64200
H1139       H  0.54088825  0.56996956  0.72587669     0.16600
C1140       C  0.55632374  0.57406383  0.75680616     0.28800
C1141       C  0.54649109  0.57991961  0.77049396    -0.25100
C1142       C  0.52190130  0.55247616  0.77888502    -0.24300
C1143       C  0.50781851  0.51864246  0.77353757     0.40300
C1144       C  0.51769686  0.51277941  0.75986115    -0.26800
O1145       O  0.58000211  0.60162323  0.74884586    -0.58700
H1146       H  0.55755225  0.60610553  0.77441677     0.15900
O1147       O  0.48427679  0.49113210  0.78157648    -0.60100
H1148       H  0.50597060  0.48663856  0.75581226     0.14300
H1149       H  0.52881158  0.54679491  0.69543027     0.46200
H1150       H  0.60255084  0.60391522  0.75116279     0.41600
H1151       H  0.49758005  0.48163180  0.78612438     0.45000
H1152       H  0.58772008  0.50631977  0.74955100     0.36500
C1153       C  0.42889573  0.08463106  0.83644016    -0.27700
C1154       C  0.43186896  0.09736479  0.82232304     0.01900
C1155       C  0.44779291  0.08798906  0.81149893     0.29900
C1156       C  0.45958147  0.06530817  0.81482381    -0.19500
C1157       C  0.45451794  0.05088706  0.82875575    -0.28900
C1158       C  0.43979980  0.06143416  0.83966819     0.44000
C1159       C  0.41361596  0.11608538  0.81890849     0.05200
O1160       O  0.45150326  0.10053959  0.79765720    -0.57500
H1161       H  0.47100811  0.05760894  0.80632368     0.18100
O1162       O  0.43500609  0.04839876  0.85346143    -0.64200
H1163       H  0.41640509  0.09135348  0.84484207     0.16600
C1164       C  0.38257731  0.09929022  0.81101200     0.28800
C1165       C  0.36018134  0.11220234  0.81123954    -0.25100
C1166       C  0.36834293  0.14201100  0.81917918    -0.24300
C1167       C  0.40068148  0.16053872  0.82601918     0.40300
C1168       C  0.42301891  0.14737223  0.82595142    -0.26800
O1169       O  0.37248332  0.06860110  0.80410587    -0.58700
H1170       H  0.33524559  0.09756256  0.80602581     0.15900
O1171       O  0.40940758  0.18986619  0.83379964    -0.60100
H1172       H  0.44667080  0.16038838  0.83218306     0.14300
H1173       H  0.45677149  0.06387744  0.85867592     0.46200
H1174       H  0.35986691  0.05068917  0.81155294     0.41600
H1175       H  0.39980952  0.18188551  0.84366428     0.45000
H1176       H  0.43395905  0.08108469  0.79175226     0.36500
C1177       C  0.47471753  0.43176147  0.82158841    -0.27700
C1178       C  0.44308907  0.40903241  0.82820879     0.01900
C1179       C  0.42663247  0.42248344  0.83670650     0.29900
C1180       C  0.44002728  0.45805470  0.83731033    -0.19500
C1181       C  0.46999770  0.48075068  0.82957852    -0.28900
C1182       C  0.48848790  0.46746518  0.82240499     0.44000
C1183       C  0.42437123  0.37202713  0.82421262     0.05200
O1184       O  0.39590758  0.40094937  0.84345580    -0.57500
H1185       H  0.42548424  0.46774093  0.84292733     0.18100
O1186       O  0.51776254  0.48871499  0.81470245    -0.64200
H1187       H  0.48762775  0.42171600  0.81500592     0.16600
C1188       C  0.41069264  0.36190228  0.81012679     0.28800
C1189       C  0.38836529  0.32712221  0.80690397    -0.25100
C1190       C  0.37981474  0.30167797  0.81747134    -0.24300
C1191       C  0.39506641  0.31169915  0.83135216     0.40300
C1192       C  0.41673400  0.34670898  0.83471093    -0.26800
O1193       O  0.41705095  0.38606214  0.79971944    -0.58700
H1194       H  0.37706432  0.32008046  0.79615104     0.15900
O1195       O  0.38712725  0.28777073  0.84200711    -0.60100
H1196       H  0.42686700  0.35417736  0.84562809     0.14300
H1197       H  0.53704307  0.49433155  0.82145588     0.46200
H1198       H  0.43715309  0.38864786  0.79419387     0.41600
H1199       H  0.40575273  0.28220356  0.84155740     0.45000
H1200       H  0.37788988  0.39678183  0.83622621     0.36500
C1201       C  0.32424147  0.19057374  0.89501032    -0.27700
C1202       C  0.35658297  0.22050973  0.89653521     0.01900
C1203       C  0.37398015  0.23902398  0.88398146     0.29900
C1204       C  0.35987124  0.22662786  0.87021590    -0.19500
C1205       C  0.32815094  0.19597053  0.86861587    -0.28900
C1206       C  0.31000798  0.17825738  0.88122874     0.44000
C1207       C  0.37375032  0.22973865  0.91096789     0.05200
O1208       O  0.40539410  0.26870453  0.88502940    -0.57500
H1209       H  0.37445280  0.24042796  0.86074543     0.18100
O1210       O  0.27828372  0.14893081  0.88023769    -0.64200
H1211       H  0.31059244  0.17574854  0.90449247     0.16600
C1212       C  0.35728441  0.23233673  0.92355362     0.28800
C1213       C  0.37366368  0.23856439  0.93713279    -0.25100
C1214       C  0.40625352  0.24164876  0.93845119    -0.24300
C1215       C  0.42276633  0.23956541  0.92571513     0.40300
C1216       C  0.40656130  0.23374322  0.91223770    -0.26800
O1217       O  0.32553865  0.22947118  0.92263713    -0.58700
H1218       H  0.36037861  0.24011301  0.94668042     0.15900
O1219       O  0.45492989  0.24332883  0.92621996    -0.60100
H1220       H  0.41942655  0.23129370  0.90273342     0.14300
H1221       H  0.28265348  0.12968805  0.88157371     0.46200
H1222       H  0.30916712  0.20691166  0.92701899     0.41600
H1223       H  0.45091517  0.21959815  0.92591751     0.45000
H1224       H  0.40011892  0.28750518  0.88545547     0.36500
C1225       C  0.93404124  0.31765612  0.82739716    -0.27700
C1226       C  0.96451810  0.34047610  0.82001363     0.01900
C1227       C  0.98156466  0.32703487  0.81188527     0.29900
C1228       C  0.97004931  0.29179692  0.81240374    -0.19500
C1229       C  0.94129151  0.26933219  0.82082927    -0.28900
C1230       C  0.92229527  0.28231115  0.82780753     0.44000
C1231       C  0.98236148  0.37782684  0.82347545     0.05200
O1232       O  0.01184292  0.34860977  0.80485437    -0.57500
H1233       H  0.98514340  0.28241251  0.80703716     0.18100
O1234       O  0.89422936  0.26136873  0.83623450    -0.64200
H1235       H  0.92076852  0.32763845  0.83377537     0.16600
C1236       C  0.99243721  0.40324769  0.81267918     0.28800
C1237       C  0.01476579  0.43810449  0.81621579    -0.25100
C1238       C  0.02744289  0.44784362  0.83044540    -0.24300
C1239       C  0.01537770  0.42256047  0.84135850     0.40300
C1240       C  0.99303823  0.38803243  0.83784955    -0.26800
O1241       O  0.98187463  0.39417239  0.79857061    -0.58700
H1242       H  0.02373840  0.45720664  0.80769156     0.15900
O1243       O  0.02661601  0.43118981  0.85542830    -0.60100
H1244       H  0.98553568  0.36887694  0.84629276     0.14300
H1245       H  0.90359832  0.26236031  0.84608502     0.46200
H1246       H  0.95875916  0.39174610  0.79811746     0.41600
H1247       H  0.00941624  0.43546389  0.86024355     0.45000
H1248       H  0.00547476  0.34746888  0.79447487     0.36500
C1249       C  0.07243723  0.15774170  0.81197390    -0.27700
C1250       C  0.10249222  0.18835227  0.81585472     0.01900
C1251       C  0.09987876  0.21639475  0.82087547     0.29900
C1252       C  0.06756975  0.21352294  0.82207860    -0.19500
C1253       C  0.03719539  0.18276894  0.81834798    -0.28900
C1254       C  0.04002658  0.15480234  0.81311676     0.44000
C1255       C  0.13649477  0.19094815  0.81445438     0.05200
O1256       O  0.12876282  0.24662678  0.82482315    -0.57500
H1257       H  0.06638482  0.23548963  0.82610432     0.18100
O1258       O  0.01133997  0.12412518  0.80948799    -0.64200
H1259       H  0.07412401  0.13604055  0.80795369     0.16600
C1260       C  0.14372939  0.16816831  0.82186224     0.28800
C1261       C  0.17550833  0.17016632  0.81988049    -0.25100
C1262       C  0.20052710  0.19468402  0.81049869    -0.24300
C1263       C  0.19346602  0.21800564  0.80334672     0.40300
C1264       C  0.16167071  0.21597162  0.80535656    -0.26800
O1265       O  0.12012276  0.14431965  0.83127312    -0.58700
H1266       H  0.18035434  0.15205460  0.82553810     0.15900
O1267       O  0.21641322  0.24134091  0.79361063    -0.60100
H1268       H  0.15626703  0.23342325  0.79946922     0.14300
H1269       H  0.00920558  0.12499946  0.79880156     0.46200
H1270       H  0.10943472  0.12215757  0.82590333     0.41600
H1271       H  0.22993295  0.26291893  0.79925545     0.45000
H1272       H  0.13311679  0.24340222  0.83508868     0.36500
C1273       C  0.66039318  0.07415518  0.81986591    -0.27700
C1274       C  0.67367847  0.07777377  0.83394783     0.01900
C1275       C  0.65073996  0.06257183  0.84568211     0.29900
C1276       C  0.61509940  0.04250462  0.84310193    -0.19500
C1277       C  0.60222549  0.03691633  0.82886321    -0.28900
C1278       C  0.62502084  0.05368132  0.81726729     0.44000
C1279       C  0.71131349  0.09235631  0.83560335     0.05200
O1280       O  0.66306942  0.06627846  0.85959019    -0.57500
H1281       H  0.59782609  0.02940572  0.85209117     0.18100
O1282       O  0.61321515  0.04803148  0.80321629    -0.64200
H1283       H  0.67775659  0.08529518  0.81071946     0.16600
C1284       C  0.72417692  0.07015887  0.83794595     0.28800
C1285       C  0.75925868  0.08204075  0.83603560    -0.25100
C1286       C  0.78224994  0.11619656  0.83196536    -0.24300
C1287       C  0.76988253  0.13921378  0.83084517     0.40300
C1288       C  0.73447413  0.12703622  0.83236428    -0.26800
O1289       O  0.70229970  0.03618479  0.84120619    -0.58700
H1290       H  0.76830381  0.06405678  0.83719506     0.15900
O1291       O  0.79156821  0.17284717  0.82704651    -0.60100
H1292       H  0.72486612  0.14431744  0.83041271     0.14300
H1293       H  0.60568934  0.06489904  0.80152762     0.46200
H1294       H  0.69475016  0.02426687  0.83168319     0.41600
H1295       H  0.80010113  0.18540069  0.83639247     0.45000
H1296       H  0.66141107  0.04406996  0.86192704     0.36500
C1297       C  0.86400384  0.20200160  0.92648990    -0.27700
C1298       C  0.87652770  0.22741707  0.91575085     0.01900
C1299       C  0.87927358  0.25926723  0.91876476     0.29900
C1300       C  0.86943081  0.26528394  0.93239423    -0.19500
C1301       C  0.85693662  0.23992682  0.94326290    -0.28900
C1302       C  0.85449189  0.20803213  0.94016841     0.44000
C1303       C  0.88537859  0.21972288  0.90128596     0.05200
O1304       O  0.88992400  0.28398167  0.90821248    -0.57500
H1305       H  0.87143468  0.28990639  0.93438163     0.18100
O1306       O  0.84285458  0.18246685  0.95036382    -0.64200
H1307       H  0.86180306  0.17736023  0.92427217     0.16600
C1308       C  0.91863011  0.23968288  0.89541554     0.28800
C1309       C  0.92624129  0.23145391  0.88176248    -0.25100
C1310       C  0.90114812  0.20307158  0.87379149    -0.24300
C1311       C  0.86776825  0.18306189  0.87979345     0.40300
C1312       C  0.86029372  0.19141514  0.89343113    -0.26800
O1313       O  0.94406205  0.26690425  0.90304276    -0.58700
H1314       H  0.95204272  0.24725650  0.87749263     0.15900
O1315       O  0.84238116  0.15476673  0.87265676    -0.60100
H1316       H  0.83464540  0.17573921  0.89789011     0.14300
H1317       H  0.86381298  0.18610667  0.95546898     0.46200
H1318       H  0.95463740  0.25685331  0.90924829     0.41600
H1319       H  0.82875794  0.16306575  0.86745350     0.45000
H1320       H  0.91297476  0.30266399  0.91136717     0.36500
C1321       C  0.66747043  0.24796472  0.98633868    -0.27700
C1322       C  0.63602135  0.22200350  0.99192181     0.01900
C1323       C  0.63398567  0.19222023  0.99770108     0.29900
C1324       C  0.66360285  0.18959015  0.99857351    -0.19500
C1325       C  0.69570941  0.21654244  0.99381664    -0.28900
C1326       C  0.69713691  0.24549048  0.98722150     0.44000
C1327       C  0.60579766  0.22675056  0.99203567     0.05200
O1328       O  0.60346965  0.16616589  0.00309921    -0.57500
H1329       H  0.66168725  0.16716573  0.00372214     0.18100
O1330       O  0.72742306  0.27167249  0.98168075    -0.64200
H1331       H  0.66918123  0.27063441  0.98152570     0.16600
C1332       C  0.60701791  0.25488233  0.99931461     0.28800
C1333       C  0.57835705  0.25920865  0.99916207    -0.25100
C1334       C  0.54798276  0.23570821  0.99180517    -0.24300
C1335       C  0.54695663  0.20746363  0.98452436     0.40300
C1336       C  0.57557357  0.20311616  0.98479413    -0.26800
O1337       O  0.63612446  0.27827461  0.00665193    -0.58700
H1338       H  0.58004707  0.28115905  0.00478826     0.15900
O1339       O  0.51821716  0.18388552  0.97704303    -0.60100
H1340       H  0.57435064  0.18144580  0.97910076     0.14300
H1341       H  0.73572279  0.29054716  0.98894507     0.46200
H1342       H  0.63374662  0.26850734  0.01650280     0.41600
H1343       H  0.52229798  0.19202587  0.96684333     0.45000
H1344       H  0.60265473  0.17270101  0.01333790     0.36500
C1345       C  0.75755655  0.70518171  0.81236719    -0.27700
C1346       C  0.73997975  0.67702943  0.82168803     0.01900
C1347       C  0.75901093  0.66691712  0.83034519     0.29900
C1348       C  0.79521440  0.68664400  0.83043523    -0.19500
C1349       C  0.81260670  0.71683547  0.82215353    -0.28900
C1350       C  0.79352646  0.72499682  0.81254599     0.44000
C1351       C  0.70256174  0.66264621  0.82405129     0.05200
O1352       O  0.74245419  0.63952604  0.83959307    -0.57500
H1353       H  0.80939601  0.68024856  0.83804342     0.18100
O1354       O  0.80968886  0.75413087  0.80422996    -0.64200
H1355       H  0.74321399  0.71322027  0.80565220     0.16600
C1356       C  0.69122660  0.68273848  0.83116771     0.28800
C1357       C  0.65605779  0.67010021  0.83310399    -0.25100
C1358       C  0.63118557  0.63735139  0.82790640    -0.24300
C1359       C  0.64265110  0.61699730  0.82087340     0.40300
C1360       C  0.67814371  0.62972124  0.81901644    -0.26800
O1361       O  0.71452821  0.71466342  0.83655613    -0.58700
H1362       H  0.64835918  0.68633049  0.83867844     0.15900
O1363       O  0.61956481  0.58499240  0.81553571    -0.60100
H1364       H  0.68660511  0.61406056  0.81348147     0.14300
H1365       H  0.81507951  0.74668198  0.79492869     0.46200
H1366       H  0.71631266  0.73112320  0.82902659     0.41600
H1367       H  0.61636623  0.56884685  0.82346684     0.45000
H1368       H  0.73990755  0.64938874  0.84884951     0.36500
C1369       C  0.86519282  0.92205243  0.82466654    -0.27700
C1370       C  0.89393005  0.95403873  0.82138211     0.01900
C1371       C  0.92569031  0.95631689  0.81837262     0.29900
C1372       C  0.92840867  0.92672424  0.81878517    -0.19500
C1373       C  0.89972089  0.89469095  0.82234295    -0.28900
C1374       C  0.86783106  0.89257147  0.82516893     0.44000
C1375       C  0.89014380  0.98467950  0.82081769     0.05200
O1376       O  0.95421035  0.98736260  0.81508811    -0.57500
H1377       H  0.95313401  0.92897128  0.81666808     0.18100
O1378       O  0.83897406  0.86177835  0.82847664    -0.64200
H1379       H  0.84060249  0.91998752  0.82694228     0.16600
C1380       C  0.86883378  0.98703979  0.81032522     0.28800
C1381       C  0.86624972  0.01659012  0.80959463    -0.25100
C1382       C  0.88468628  0.04416113  0.81928257    -0.24300
C1383       C  0.90502686  0.04115199  0.83015957     0.40300
C1384       C  0.90774690  0.01161861  0.83081567    -0.26800
O1385       O  0.85206224  0.96141888  0.80019627    -0.58700
H1386       H  0.85095657  0.01852229  0.80099292     0.15900
O1387       O  0.92281699  0.06712137  0.84003807    -0.60100
H1388       H  0.92381485  0.00980107  0.83908322     0.14300
H1389       H  0.82888168  0.85097107  0.81896170     0.46200
H1390       H  0.82811631  0.94747173  0.80383527     0.41600
H1391       H  0.90607051  0.06300019  0.84790337     0.45000
H1392       H  0.95244736  0.99043361  0.80452483     0.36500
C1393       C  0.15895831  0.98426030  0.82556046    -0.27700
C1394       C  0.13166402  0.97575927  0.81600624     0.01900
C1395       C  0.13424502  0.00031944  0.80593842     0.29900
C1396       C  0.16360195  0.03320130  0.80572967    -0.19500
C1397       C  0.19092964  0.04213435  0.81544337    -0.28900
C1398       C  0.18842238  0.01707959  0.82536147     0.44000
C1399       C  0.09965373  0.94197155  0.81712455     0.05200
O1400       O  0.10789591  0.99255159  0.79640790    -0.57500
H1401       H  0.16483195  0.05181179  0.79800292     0.18100
O1402       O  0.21372706  0.02485150  0.83545040    -0.64200
H1403       H  0.15701223  0.96566732  0.83347381     0.16600
C1404       C  0.09876038  0.91128086  0.81341285     0.28800
C1405       C  0.06722817  0.88009457  0.81320752    -0.25100
C1406       C  0.03631729  0.87892496  0.81696852    -0.24300
C1407       C  0.03803287  0.90969399  0.82172566     0.40300
C1408       C  0.06937037  0.94074246  0.82158182    -0.26800
O1409       O  0.12820551  0.91184966  0.80911520    -0.58700
H1410       H  0.06689850  0.85706159  0.80958671     0.15900
O1411       O  0.00908863  0.91027297  0.82590467    -0.60100
H1412       H  0.06995347  0.96420125  0.82473507     0.14300
H1413       H  0.22801237  0.01595688  0.83126447     0.46200
H1414       H  0.13706154  0.90665062  0.81800903     0.41600
H1415       H  0.00643353  0.90479669  0.83641949     0.45000
H1416       H  0.11182076  0.98086090  0.78810044     0.36500
C1417       C  0.96910079  0.66610097  0.84455142    -0.27700
C1418       C  0.98207478  0.65403291  0.83356798     0.01900
C1419       C  0.98259181  0.66444486  0.81911625     0.29900
C1420       C  0.97151351  0.68751772  0.81589927    -0.19500
C1421       C  0.95937356  0.70029624  0.82689597    -0.28900
C1422       C  0.95747082  0.68885642  0.84127303     0.44000
C1423       C  0.99990483  0.63504624  0.83725305     0.05200
O1424       O  0.99548733  0.65350512  0.80814527    -0.57500
H1425       H  0.97312586  0.69607869  0.80479241     0.18100
O1426       O  0.94701142  0.70192713  0.85234199    -0.64200
H1427       H  0.96912181  0.65879311  0.85574362     0.16600
C1428       C  0.03120385  0.65195118  0.84493748     0.28800
C1429       C  0.05338568  0.63882186  0.84461853    -0.25100
C1430       C  0.04469477  0.60862220  0.83683162    -0.24300
C1431       C  0.01152488  0.58942709  0.83071194     0.40300
C1432       C  0.98949209  0.60291748  0.83081044    -0.26800
O1433       O  0.04230096  0.68350438  0.85120614    -0.58700
H1434       H  0.07874203  0.65386409  0.84943736     0.15900
O1435       O  0.00213764  0.55986177  0.82301333    -0.60100
H1436       H  0.96538779  0.58959002  0.82489761     0.14300
H1437       H  0.92205618  0.68529849  0.85353416     0.46200
H1438       H  0.03536168  0.67861141  0.86155090     0.41600
H1439       H  0.99188111  0.54118438  0.83030240     0.45000
H1440       H  0.02065953  0.67002457  0.80811704     0.36500
C1441       C  0.57852528  0.44021468  0.99902272    -0.27700
C1442       C  0.60676744  0.43886631  0.99333721     0.01900
C1443       C  0.60122192  0.40823550  0.98677118     0.29900
C1444       C  0.56833095  0.37901588  0.98682616    -0.19500
C1445       C  0.54033425  0.37975561  0.99324352    -0.28900
C1446       C  0.54549598  0.41111281  0.99892791     0.44000
C1447       C  0.64192268  0.46923595  0.99465933     0.05200
O1448       O  0.62795321  0.40627865  0.98063420    -0.57500
H1449       H  0.56501648  0.35528578  0.98232565     0.18100
O1450       O  0.51897974  0.41320206  0.00521875    -0.64200
H1451       H  0.58229030  0.46350960  0.00417036     0.16600
C1452       C  0.64885869  0.50179546  0.99013037     0.28800
C1453       C  0.68207464  0.53012097  0.99142831    -0.25100
C1454       C  0.70917336  0.52689870  0.99724369    -0.24300
C1455       C  0.70211649  0.49423347  0.00193932     0.40300
C1456       C  0.66868763  0.46579623  0.00065539    -0.26800
O1457       O  0.62371426  0.50585800  0.98369974    -0.58700
H1458       H  0.68657147  0.55469240  0.98757590     0.15900
O1459       O  0.72769207  0.48948193  0.00738351    -0.60100
H1460       H  0.66363737  0.44093066  0.00437896     0.14300
H1461       H  0.52012340  0.40899163  0.01571562     0.46200
H1462       H  0.61799778  0.51867261  0.99088307     0.41600
H1463       H  0.72682653  0.49198877  0.01806573     0.45000
H1464       H  0.63035281  0.41556049  0.97068395     0.36500
C1465       C  0.81353634  0.40587746  0.00417404    -0.27700
C1466       C  0.84407290  0.43407515  0.99898311     0.01900
C1467       C  0.87026815  0.42903687  0.99350488     0.29900
C1468       C  0.86618407  0.39624974  0.99361336    -0.19500
C1469       C  0.83590747  0.36780923  0.99906155    -0.28900
C1470       C  0.80929227  0.37290883  0.00427448     0.44000
C1471       C  0.84907803  0.46895095  0.99990130     0.05200
O1472       O  0.90002457  0.45607808  0.98803777    -0.57500
H1473       H  0.88687602  0.39317417  0.98932493     0.18100
O1474       O  0.77896156  0.34598775  0.00937043    -0.64200
H1475       H  0.79317020  0.40957564  0.00839932     0.16600
C1476       C  0.82870298  0.47802339  0.99171296     0.28800
C1477       C  0.83303782  0.51082576  0.99324346    -0.25100
C1478       C  0.85719689  0.53491083  0.00313391    -0.24300
C1479       C  0.87799251  0.52572183  0.01116331     0.40300
C1480       C  0.87403084  0.49310368  0.00937298    -0.26800
O1481       O  0.80480911  0.45512515  0.98205731    -0.58700
H1482       H  0.81671425  0.51702393  0.98690082     0.15900
O1483       O  0.90155641  0.54788021  0.02110091    -0.60100
H1484       H  0.88979571  0.48622293  0.01575221     0.14300
H1485       H  0.78241269  0.34549308  0.01998553     0.46200
H1486       H  0.78249475  0.44468865  0.98729034     0.41600
H1487       H  0.88915248  0.54190612  0.03052898     0.45000
H1488       H  0.89463644  0.45829241  0.97779760     0.36500
C1489       C  0.85204720  0.71287511  0.92728959    -0.27700
C1490       C  0.87052621  0.70289544  0.91815608     0.01900
C1491       C  0.88249668  0.68185205  0.92376577     0.29900
C1492       C  0.87542828  0.67070781  0.93818783    -0.19500
C1493       C  0.85560056  0.67943646  0.94704053    -0.28900
C1494       C  0.84425833  0.70102393  0.94157330     0.44000
C1495       C  0.87638879  0.71400699  0.90275808     0.05200
O1496       O  0.90003468  0.67102060  0.91511885    -0.57500
H1497       H  0.88408911  0.65389016  0.94225945     0.18100
O1498       O  0.82529735  0.71043177  0.95006918    -0.64200
H1499       H  0.84328463  0.72965060  0.92327671     0.16600
C1500       C  0.84889217  0.70988390  0.89402304     0.28800
C1501       C  0.85510872  0.72255769  0.87986533    -0.25100
C1502       C  0.88848907  0.73892288  0.87401350    -0.24300
C1503       C  0.91583207  0.74183177  0.88251144     0.40300
C1504       C  0.90967696  0.72955015  0.89679362    -0.26800
O1505       O  0.81581584  0.69375786  0.89926168    -0.58700
H1506       H  0.83368584  0.71976080  0.87345414     0.15900
O1507       O  0.94884764  0.75785514  0.87720991    -0.60100
H1508       H  0.93117355  0.73314427  0.90336787     0.14300
H1509       H  0.84250365  0.73115105  0.95546987     0.46200
H1510       H  0.80659132  0.66891071  0.89746360     0.41600
H1511       H  0.95865251  0.78257844  0.87952985     0.45000
H1512       H  0.88196995  0.65055520  0.90986158     0.36500
C1513       C  0.84821749  0.01072148  0.73809256    -0.27700
C1514       C  0.88300742  0.03596107  0.73644689     0.01900
C1515       C  0.90130051  0.03510301  0.72421860     0.29900
C1516       C  0.88405774  0.01032962  0.71333224    -0.19500
C1517       C  0.84848603  0.98699953  0.71440659    -0.28900
C1518       C  0.83087917  0.98645727  0.72713764     0.44000
C1519       C  0.89814834  0.06495856  0.74682098     0.05200
O1520       O  0.93524696  0.05976253  0.72233891    -0.57500
H1521       H  0.89767349  0.01166568  0.70339959     0.18100
O1522       O  0.79601499  0.96448082  0.72831323    -0.64200
H1523       H  0.83394220  0.01126987  0.74749113     0.16600
C1524       C  0.88833459  0.08994507  0.74626684     0.28800
C1525       C  0.89536542  0.11230150  0.75801839    -0.25100
C1526       C  0.91188954  0.10985561  0.77046631    -0.24300
C1527       C  0.92456836  0.08699111  0.77041419     0.40300
C1528       C  0.91752560  0.06459817  0.75860803    -0.26800
O1529       O  0.86980277  0.09108511  0.73469524    -0.58700
H1530       H  0.88524432  0.12954085  0.75793042     0.15900
O1531       O  0.93961216  0.08303512  0.78260791    -0.60100
H1532       H  0.92483567  0.04517804  0.75917258     0.14300
H1533       H  0.79345439  0.94418087  0.73355297     0.46200
H1534       H  0.84531350  0.07734939  0.73769956     0.41600
H1535       H  0.96454951  0.09478271  0.78034209     0.45000
H1536       H  0.93488468  0.07879612  0.71716781     0.36500
C1537       C  0.69302807  0.76766559  0.67679666    -0.27700
C1538       C  0.67586169  0.74562402  0.66499622     0.01900
C1539       C  0.67588720  0.75994537  0.65143985     0.29900
C1540       C  0.69472020  0.79558226  0.64957944    -0.19500
C1541       C  0.71376455  0.81746079  0.66108287    -0.28900
C1542       C  0.71183138  0.80348803  0.67491204     0.44000
C1543       C  0.66295311  0.70823408  0.66604419     0.05200
O1544       O  0.65998629  0.73922050  0.63962605    -0.57500
H1545       H  0.69651143  0.80604829  0.63882272     0.18100
O1546       O  0.73096660  0.82428703  0.68622159    -0.64200
H1547       H  0.69348706  0.75698409  0.68725074     0.16600
C1548       C  0.68631959  0.69675401  0.66839892     0.28800
C1549       C  0.67559404  0.66193585  0.66675108    -0.25100
C1550       C  0.64158446  0.63787845  0.66273423    -0.24300
C1551       C  0.61774111  0.64908289  0.66100088     0.40300
C1552       C  0.62853821  0.68408089  0.66263696    -0.26800
O1553       O  0.72023236  0.71966405  0.67153755    -0.58700
H1554       H  0.69431923  0.65388584  0.66818182     0.15900
O1555       O  0.58440704  0.62646364  0.65692265    -0.60100
H1556       H  0.61038266  0.69261940  0.66064309     0.14300
H1557       H  0.71463808  0.82811947  0.69203154     0.46200
H1558       H  0.73179455  0.72727401  0.66196747     0.41600
H1559       H  0.58445965  0.62739313  0.64615436     0.45000
H1560       H  0.67749857  0.73479277  0.63522755     0.36500
C1561       C  0.65864562  0.98005208  0.67083453    -0.27700
C1562       C  0.64487549  0.97963401  0.65713105     0.01900
C1563       C  0.65407643  0.96648487  0.64510389     0.29900
C1564       C  0.67830321  0.95589456  0.64673118    -0.19500
C1565       C  0.69392983  0.95884390  0.66025032    -0.28900
C1566       C  0.68309100  0.96992673  0.67242381     0.44000
C1567       C  0.62625249  0.99861221  0.65521978     0.05200
O1568       O  0.64114081  0.96590035  0.63156972    -0.57500
H1569       H  0.68649065  0.94749844  0.63727104     0.18100
O1570       O  0.69769766  0.97272815  0.68579755    -0.64200
H1571       H  0.65217605  0.99045143  0.68015748     0.16600
C1572       C  0.59544180  0.98933856  0.66272472     0.28800
C1573       C  0.58252976  0.01190020  0.66306513    -0.25100
C1574       C  0.60076935  0.04424993  0.65640086    -0.24300
C1575       C  0.63036106  0.05243690  0.64815653     0.40300
C1576       C  0.64267157  0.02960770  0.64751361    -0.26800
O1577       O  0.57860301  0.95895138  0.67019983    -0.58700
H1578       H  0.56006399  0.00543171  0.66963946     0.15900
O1579       O  0.64909353  0.08400398  0.64169658    -0.60100
H1580       H  0.66661016  0.03730398  0.64184391     0.14300
H1581       H  0.68390174  0.94966320  0.69023588     0.46200
H1582       H  0.58525448  0.96521226  0.68051792     0.41600
H1583       H  0.63890541  0.08106452  0.63188361     0.45000
H1584       H  0.61784119  0.94508813  0.63145095     0.36500
C1585       C  0.71362264  0.89530777  0.55711272    -0.27700
C1586       C  0.69974184  0.87158279  0.56846540     0.01900
C1587       C  0.67002347  0.83941906  0.56604499     0.29900
C1588       C  0.65454723  0.83125631  0.55234266    -0.19500
C1589       C  0.66834806  0.85489266  0.54085710    -0.28900
C1590       C  0.69824218  0.88726724  0.54338610     0.44000
C1591       C  0.71653044  0.88050591  0.58281706     0.05200
O1592       O  0.65612071  0.81567054  0.57698427    -0.57500
H1593       H  0.63170293  0.80627976  0.55072073     0.18100
O1594       O  0.71293085  0.91118735  0.53254121    -0.64200
H1595       H  0.73650979  0.92017602  0.55891702     0.16600
C1596       C  0.75014122  0.88658818  0.58458274     0.28800
C1597       C  0.76531513  0.89428729  0.59835433    -0.25100
C1598       C  0.74730701  0.89596242  0.61055737    -0.24300
C1599       C  0.71351138  0.88984406  0.60867450     0.40300
C1600       C  0.69851362  0.88231676  0.59487656    -0.26800
O1601       O  0.76815422  0.88456915  0.57294762    -0.58700
H1602       H  0.79118463  0.89871407  0.59947696     0.15900
O1603       O  0.69455882  0.89048262  0.62023675    -0.60100
H1604       H  0.67256408  0.87759843  0.59358817     0.14300
H1605       H  0.72924957  0.90584847  0.52758511     0.46200
H1606       H  0.76040533  0.85979825  0.57193416     0.41600
H1607       H  0.68228459  0.86664526  0.62402075     0.45000
H1608       H  0.66861406  0.80285805  0.57656845     0.36500
C1609       C  0.97986820  0.84441312  0.74494545    -0.27700
C1610       C  0.00614716  0.87882387  0.74658822     0.01900
C1611       C  0.00729788  0.89692603  0.75924376     0.29900
C1612       C  0.98432873  0.87963157  0.77066659    -0.19500
C1613       C  0.96089732  0.84409131  0.76972803    -0.28900
C1614       C  0.95737268  0.82696716  0.75644378     0.44000
C1615       C  0.03620473  0.89237397  0.73677677     0.05200
O1616       O  0.03266706  0.93064243  0.76102289    -0.57500
H1617       H  0.98771550  0.89307835  0.78087832     0.18100
O1618       O  0.93463718  0.79232481  0.75517127    -0.64200
H1619       H  0.97890895  0.83019111  0.73525468     0.16600
C1620       C  0.06264122  0.88542679  0.73986047     0.28800
C1621       C  0.08770479  0.89174855  0.72940912    -0.25100
C1622       C  0.08716964  0.90556542  0.71588732    -0.24300
C1623       C  0.06246205  0.91535706  0.71328420     0.40300
C1624       C  0.03688593  0.90837443  0.72367890    -0.26800
O1625       O  0.06221342  0.86936987  0.75253400    -0.58700
H1626       H  0.10600703  0.88340281  0.73143462     0.15900
O1627       O  0.06041419  0.92761845  0.69994288    -0.60100
H1628       H  0.01651244  0.91360589  0.72118101     0.14300
H1629       H  0.91221312  0.79027073  0.75280170     0.46200
H1630       H  0.07527782  0.88823482  0.75961342     0.41600
H1631       H  0.07564874  0.95291198  0.70065391     0.45000
H1632       H  0.05156247  0.92991632  0.76619758     0.36500
C1633       C  0.31522681  0.97742352  0.67860826    -0.27700
C1634       C  0.33197354  0.96466445  0.66997627     0.01900
C1635       C  0.31209930  0.93420817  0.66191884     0.29900
C1636       C  0.27604052  0.91880754  0.66150672    -0.19500
C1637       C  0.25970103  0.93395592  0.66887239    -0.28900
C1638       C  0.27937425  0.96231621  0.67808588     0.44000
C1639       C  0.36906110  0.98769901  0.66677646     0.05200
O1640       O  0.32785166  0.92106429  0.65346165    -0.57500
H1641       H  0.26132853  0.89725257  0.65423368     0.18100
O1642       O  0.26412722  0.97761293  0.68543715    -0.64200
H1643       H  0.33022976  0.00099942  0.68475556     0.16600
C1644       C  0.37870228  0.01405838  0.65655646     0.28800
C1645       C  0.41346574  0.03762865  0.65399165    -0.25100
C1646       C  0.43952955  0.03569804  0.66152554    -0.24300
C1647       C  0.42986171  0.00876189  0.67161308     0.40300
C1648       C  0.39475363  0.98507303  0.67422456    -0.26800
O1649       O  0.35411374  0.01693141  0.64897348    -0.58700
H1650       H  0.41998514  0.05768547  0.64606818     0.15900
O1651       O  0.45431402  0.00625150  0.67945083    -0.60100
H1652       H  0.38758986  0.96504663  0.68222458     0.14300
H1653       H  0.25736086  0.96584709  0.69496646     0.46200
H1654       H  0.34951923  0.03264593  0.65485761     0.41600
H1655       H  0.45872240  0.99000777  0.67387934     0.45000
H1656       H  0.33056682  0.93165163  0.64376852     0.36500
C1657       C  0.12446189  0.72853582  0.65885505    -0.27700
C1658       C  0.08977574  0.70336039  0.65673865     0.01900
C1659       C  0.06487541  0.71327368  0.65588975     0.29900
C1660       C  0.07448516  0.74767542  0.65785267    -0.19500
C1661       C  0.10895056  0.77290952  0.66054649    -0.28900
C1662       C  0.13423135  0.76323444  0.66061952     0.44000
C1663       C  0.07844521  0.66645823  0.65767188     0.05200
O1664       O  0.03062261  0.68906492  0.65435786    -0.57500
H1665       H  0.05460264  0.75443405  0.65766670     0.18100
O1666       O  0.16821557  0.78708955  0.66307929    -0.64200
H1667       H  0.14376563  0.72108097  0.65966732     0.16600
C1668       C  0.06073541  0.64377145  0.64609005     0.28800
C1669       C  0.04143970  0.60830120  0.64859020    -0.25100
C1670       C  0.03974790  0.59533709  0.66256001    -0.24300
C1671       C  0.05991941  0.61773523  0.67379271     0.40300
C1672       C  0.07932771  0.65309595  0.67127668    -0.26800
O1673       O  0.05965609  0.65622676  0.63266952    -0.58700
H1674       H  0.02558478  0.59125685  0.63993820     0.15900
O1675       O  0.05799218  0.60566429  0.68761962    -0.60100
H1676       H  0.09260222  0.67031567  0.68029921     0.14300
H1677       H  0.17121448  0.78733472  0.67376116     0.46200
H1678       H  0.08028395  0.65912264  0.62749047     0.41600
H1679       H  0.07410176  0.59679223  0.68771955     0.45000
H1680       H  0.02537784  0.68975800  0.64394933     0.36500
C1681       C  0.97111567  0.85474691  0.67258726    -0.27700
C1682       C  0.97306908  0.88276348  0.66521837     0.01900
C1683       C  0.00374915  0.90590886  0.65802662     0.29900
C1684       C  0.03254608  0.90197800  0.65895570    -0.19500
C1685       C  0.03136019  0.87493880  0.66698891    -0.28900
C1686       C  0.99980952  0.85060802  0.67348857     0.44000
C1687       C  0.94353667  0.88853292  0.66569603     0.05200
O1688       O  0.00615096  0.93309233  0.65043057    -0.57500
H1689       H  0.05628166  0.92098872  0.65381281     0.18100
O1690       O  0.99733547  0.82424134  0.68173631    -0.64200
H1691       H  0.94765466  0.83679738  0.67821622     0.16600
C1692       C  0.91114929  0.86373667  0.66027084     0.28800
C1693       C  0.88369048  0.86984970  0.66072867    -0.25100
C1694       C  0.88772119  0.90049670  0.66671068    -0.24300
C1695       C  0.92010824  0.92495248  0.67250209     0.40300
C1696       C  0.94768705  0.91892335  0.67187063    -0.26800
O1697       O  0.90654504  0.83416906  0.65386911    -0.58700
H1698       H  0.85925962  0.85059828  0.65612828     0.15900
O1699       O  0.92543948  0.95514324  0.67850548    -0.60100
H1700       H  0.97245087  0.93802674  0.67627114     0.14300
H1701       H  0.98791809  0.80412404  0.67508525     0.46200
H1702       H  0.89441313  0.81592619  0.66123548     0.41600
H1703       H  0.92026950  0.95021757  0.68899439     0.45000
H1704       H  0.99869404  0.92425693  0.64041160     0.36500
C1705       C  0.48462861  0.87837476  0.49383796    -0.27700
C1706       C  0.45628169  0.84870752  0.48785808     0.01900
C1707       C  0.46194984  0.82414786  0.48090743     0.29900
C1708       C  0.49508049  0.82891732  0.48040403    -0.19500
C1709       C  0.52341938  0.85839585  0.48639835    -0.28900
C1710       C  0.51804956  0.88343563  0.49305283     0.44000
C1711       C  0.42112120  0.84402365  0.48849487     0.05200
O1712       O  0.43571154  0.79669371  0.47364887    -0.57500
H1713       H  0.49877685  0.80993041  0.47472534     0.18100
O1714       O  0.54513566  0.91286696  0.49875990    -0.64200
H1715       H  0.48082732  0.89769036  0.49913094     0.16600
C1716       C  0.39251601  0.81285815  0.49325992     0.28800
C1717       C  0.35943731  0.80840416  0.49300514    -0.25100
C1718       C  0.35435073  0.83526069  0.48874369    -0.24300
C1719       C  0.38300980  0.86687672  0.48451837     0.40300
C1720       C  0.41595196  0.87087118  0.48419104    -0.26800
O1721       O  0.39666658  0.78686534  0.49856439    -0.58700
H1722       H  0.33783438  0.78430477  0.49671859     0.15900
O1723       O  0.37891994  0.89364604  0.48023948    -0.60100
H1724       H  0.43751708  0.89500438  0.48049674     0.14300
H1725       H  0.54739647  0.90700530  0.50890930     0.46200
H1726       H  0.40288205  0.79271602  0.50894083     0.41600
H1727       H  0.38555697  0.90915098  0.48880981     0.45000
H1728       H  0.43285147  0.77584178  0.47851281     0.36500
C1729       C  0.17872628  0.84873153  0.56167966    -0.27700
C1730       C  0.20354610  0.85994978  0.57270841     0.01900
C1731       C  0.23567749  0.86318702  0.56980697     0.29900
C1732       C  0.24317878  0.85651283  0.55585212    -0.19500
C1733       C  0.21900879  0.84656420  0.54453664    -0.28900
C1734       C  0.18620820  0.84216854  0.54765105     0.44000
C1735       C  0.19644218  0.86970956  0.58707530     0.05200
O1736       O  0.25946228  0.87185045  0.58071679    -0.57500
H1737       H  0.26818141  0.85926039  0.55393667     0.18100
O1738       O  0.16133484  0.83178128  0.53712281    -0.64200
H1739       H  0.15379606  0.84596506  0.56386028     0.16600
C1740       C  0.21698605  0.90350759  0.59229233     0.28800
C1741       C  0.21085005  0.91235765  0.60607346    -0.25100
C1742       C  0.18437807  0.88786873  0.61491018    -0.24300
C1743       C  0.16313256  0.85413591  0.60948048     0.40300
C1744       C  0.16930636  0.84531051  0.59563885    -0.26800
O1745       O  0.24226241  0.92834359  0.58371298    -0.58700
H1746       H  0.22717360  0.93852993  0.60987727     0.15900
O1747       O  0.13616869  0.82969349  0.61750973    -0.60100
H1748       H  0.15311327  0.81929387  0.59162966     0.14300
H1749       H  0.16453069  0.85332030  0.53283764     0.46200
H1750       H  0.26430526  0.93533286  0.58874985     0.41600
H1751       H  0.11609241  0.83189531  0.61479783     0.45000
H1752       H  0.27947277  0.89437717  0.57792075     0.36500
C1753       C  0.17441340  0.14253267  0.75336593    -0.27700
C1754       C  0.19081336  0.15827779  0.74031485     0.01900
C1755       C  0.22516122  0.16673031  0.73800845     0.29900
C1756       C  0.24380857  0.16318726  0.74933818    -0.19500
C1757       C  0.22834425  0.15047083  0.76289111    -0.28900
C1758       C  0.19289703  0.13833039  0.76460262     0.44000
C1759       C  0.17529100  0.17288653  0.73067244     0.05200
O1760       O  0.24199631  0.18270361  0.72543750    -0.57500
H1761       H  0.27120625  0.17337902  0.74797903     0.18100
O1762       O  0.17718447  0.12618135  0.77779581    -0.64200
H1763       H  0.14807678  0.13611710  0.75528741     0.16600
C1764       C  0.16694812  0.16209340  0.71614631     0.28800
C1765       C  0.16080469  0.18212613  0.70638257    -0.25100
C1766       C  0.16387011  0.21337582  0.71087744    -0.24300
C1767       C  0.16943088  0.22263753  0.72562936     0.40300
C1768       C  0.17471270  0.20220752  0.73546581    -0.26800
O1769       O  0.16661194  0.13312471  0.71128441    -0.58700
H1770       H  0.15730009  0.17510844  0.69496206     0.15900
O1771       O  0.17367248  0.25350885  0.73020353    -0.60100
H1772       H  0.18145939  0.21095564  0.74660727     0.14300
H1773       H  0.17835349  0.14624962  0.78281867     0.46200
H1774       H  0.18725902  0.14147998  0.70501488     0.41600
H1775       H  0.15000302  0.24912480  0.73178529     0.45000
H1776       H  0.24252845  0.16452098  0.71954641     0.36500
C1777       C  0.13029184  0.40389241  0.64890669    -0.27700
C1778       C  0.11987139  0.40752988  0.66288204     0.01900
C1779       C  0.12718982  0.39254862  0.67475804     0.29900
C1780       C  0.14228333  0.37230398  0.67243446    -0.19500
C1781       C  0.15012630  0.36658978  0.65832521    -0.28900
C1782       C  0.14532499  0.38366815  0.64659699     0.44000
C1783       C  0.09715412  0.42246108  0.66461536     0.05200
O1784       O  0.11782977  0.39588124  0.68859017    -0.57500
H1785       H  0.14572303  0.35923542  0.68154317     0.18100
O1786       O  0.15330541  0.37898776  0.63268789    -0.64200
H1787       H  0.12470641  0.41485282  0.63960773     0.16600
C1788       C  0.10599086  0.45495128  0.65896785     0.28800
C1789       C  0.08204332  0.46626513  0.65944981    -0.25100
C1790       C  0.04882961  0.44505757  0.66511736    -0.24300
C1791       C  0.04054896  0.41317840  0.67117457     0.40300
C1792       C  0.06452452  0.40220545  0.67092637    -0.26800
O1793       O  0.13784670  0.47567254  0.65292271    -0.58700
H1794       H  0.08875914  0.49073960  0.65463664     0.15900
O1795       O  0.00846425  0.39188155  0.67689252    -0.60100
H1796       H  0.05696162  0.37696844  0.67513283     0.14300
H1797       H  0.17826668  0.39575415  0.63159674     0.46200
H1798       H  0.13386025  0.47452047  0.64228567     0.41600
H1799       H  0.01057880  0.39789096  0.68737008     0.45000
H1800       H  0.13653112  0.41858396  0.69205669     0.36500
C1801       C  0.15607728  0.06827245  0.66995855    -0.27700
C1802       C  0.18966927  0.09616027  0.66790005     0.01900
C1803       C  0.21714027  0.08980043  0.66693447     0.29900
C1804       C  0.21074325  0.05616225  0.66758090    -0.19500
C1805       C  0.17703064  0.02807398  0.66904696    -0.28900
C1806       C  0.14959263  0.03447258  0.67048181     0.44000
C1807       C  0.19580229  0.13165817  0.66661087     0.05200
O1808       O  0.25033214  0.11618289  0.66492542    -0.57500
H1809       H  0.23236352  0.05208286  0.66655583     0.18100
O1810       O  0.11619931  0.00793407  0.67167656    -0.64200
H1811       H  0.13466722  0.07266397  0.67102874     0.16600
C1812       C  0.17570275  0.13907187  0.65725296     0.28800
C1813       C  0.18058554  0.17224066  0.65688183    -0.25100
C1814       C  0.20590413  0.19873200  0.66551451    -0.24300
C1815       C  0.22699973  0.19168910  0.67439350     0.40300
C1816       C  0.22175341  0.15840340  0.67493281    -0.26800
O1817       O  0.15067443  0.11392229  0.64865758    -0.58700
H1818       H  0.16373058  0.17702573  0.65018283     0.15900
O1819       O  0.25115063  0.21650318  0.68339757    -0.60100
H1820       H  0.23713322  0.15321121  0.68237035     0.14300
H1821       H  0.11148417  0.00506471  0.68226403     0.46200
H1822       H  0.16265012  0.11407006  0.63957727     0.41600
H1823       H  0.23921375  0.21348644  0.69282402     0.45000
H1824       H  0.25277691  0.12008170  0.65428517     0.36500
C1825       C  0.94107838  0.07673709  0.65596309    -0.27700
C1826       C  0.94784332  0.10640163  0.66370520     0.01900
C1827       C  0.92061693  0.10664035  0.67117702     0.29900
C1828       C  0.88773897  0.07703545  0.67136907    -0.19500
C1829       C  0.88148977  0.04661508  0.66435613    -0.28900
C1830       C  0.90839440  0.04706449  0.65626948     0.44000
C1831       C  0.98362371  0.13634289  0.66428811     0.05200
O1832       O  0.92625128  0.13509272  0.67891838    -0.57500
H1833       H  0.86768869  0.07728063  0.67780115     0.18100
O1834       O  0.90341561  0.01823455  0.64904310    -0.64200
H1835       H  0.96148737  0.07632719  0.64988026     0.16600
C1836       C  0.01115163  0.13235325  0.66894553     0.28800
C1837       C  0.04491200  0.16047276  0.66891511    -0.25100
C1838       C  0.05211358  0.19300497  0.66415292    -0.24300
C1839       C  0.02426922  0.19716555  0.65992296     0.40300
C1840       C  0.99050784  0.16898733  0.65997343    -0.26800
O1841       O  0.00514715  0.10118287  0.67391846    -0.58700
H1842       H  0.06558143  0.15651184  0.67239256     0.15900
O1843       O  0.02964559  0.22845775  0.65547080    -0.60100
H1844       H  0.96965486  0.17253711  0.65637560     0.14300
H1845       H  0.89638566  0.02030134  0.63907419     0.46200
H1846       H  0.01323103  0.09186070  0.66605794     0.41600
H1847       H  0.02827043  0.23995399  0.66445217     0.45000
H1848       H  0.93368638  0.13230113  0.68869738     0.36500
C1849       C  0.43099839  0.44251410  0.64643569    -0.27700
C1850       C  0.41678223  0.45672450  0.65577070     0.01900
C1851       C  0.43893582  0.48590916  0.66416950     0.29900
C1852       C  0.47448308  0.49836824  0.66419464    -0.19500
C1853       C  0.48808089  0.48167672  0.65602969    -0.28900
C1854       C  0.46637119  0.45465595  0.64660224     0.44000
C1855       C  0.37941113  0.43630320  0.65892695     0.05200
O1856       O  0.42576942  0.50039850  0.67335892    -0.57500
H1857       H  0.49088488  0.51891754  0.67162889     0.18100
O1858       O  0.47898084  0.43769974  0.63862289    -0.64200
H1859       H  0.41429133  0.41984961  0.64003365     0.16600
C1860       C  0.35446738  0.42779912  0.64802713     0.28800
C1861       C  0.31987825  0.40298016  0.65074026    -0.25100
C1862       C  0.31000376  0.38555241  0.66406020    -0.24300
C1863       C  0.33482022  0.39529472  0.67515038     0.40300
C1864       C  0.36906963  0.42059498  0.67256903    -0.26800
O1865       O  0.36381858  0.44311379  0.63464931    -0.58700
H1866       H  0.30115923  0.39586995  0.64215923     0.15900
O1867       O  0.32613799  0.37928398  0.68839722    -0.60100
H1868       H  0.38804832  0.42653561  0.68100714     0.14300
H1869       H  0.48905573  0.45183948  0.62979238     0.46200
H1870       H  0.36491097  0.42600474  0.62820905     0.41600
H1871       H  0.31882278  0.39279679  0.69437880     0.45000
H1872       H  0.42229521  0.51635276  0.66721051     0.36500
C1873       C  0.18722771  0.57018763  0.49025557    -0.27700
C1874       C  0.21445798  0.60393888  0.48818191     0.01900
C1875       C  0.24766403  0.60962609  0.48526701     0.29900
C1876       C  0.25351388  0.58201623  0.48502695    -0.19500
C1877       C  0.22655606  0.54830880  0.48761983    -0.28900
C1878       C  0.19296231  0.54248346  0.48990993     0.44000
C1879       C  0.20824153  0.63315777  0.48927238     0.05200
O1880       O  0.27470889  0.64218882  0.48278997    -0.57500
H1881       H  0.27946979  0.58719334  0.48316244     0.18100
O1882       O  0.16557278  0.50993204  0.49205401    -0.64200
H1883       H  0.16151172  0.56534042  0.49245950     0.16600
C1884       C  0.18343331  0.63455701  0.48052194     0.28800
C1885       C  0.17984868  0.66359660  0.48099236    -0.25100
C1886       C  0.20092214  0.69177032  0.49005165    -0.24300
C1887       C  0.22465875  0.68957545  0.49930311     0.40300
C1888       C  0.22805768  0.66043408  0.49888492    -0.26800
O1889       O  0.16454490  0.60893009  0.47063901    -0.58700
H1890       H  0.16196455  0.66488162  0.47354334     0.15900
O1891       O  0.24564185  0.71626453  0.50838877    -0.60100
H1892       H  0.24684602  0.65945230  0.50587430     0.14300
H1893       H  0.15669589  0.50089414  0.48218249     0.46200
H1894       H  0.14111762  0.59566008  0.47487653     0.41600
H1895       H  0.23166278  0.71288898  0.51723305     0.45000
H1896       H  0.27428377  0.64576618  0.47218655     0.36500
C1897       C  0.43573588  0.58617570  0.47640675    -0.27700
C1898       C  0.43639879  0.61273967  0.48462629     0.01900
C1899       C  0.40727460  0.60584183  0.49290814     0.29900
C1900       C  0.37754814  0.57320287  0.49238882    -0.19500
C1901       C  0.37629319  0.54679031  0.48373587    -0.28900
C1902       C  0.40605320  0.55352557  0.47584381     0.44000
C1903       C  0.46709419  0.64784464  0.48407557     0.05200
O1904       O  0.40737173  0.63106931  0.50131814    -0.57500
H1905       H  0.35509653  0.56881837  0.49850385     0.18100
O1906       O  0.40594033  0.52904239  0.46690911    -0.64200
H1907       H  0.45788146  0.59115994  0.46990980     0.16600
C1908       C  0.49967802  0.65403818  0.48835229     0.28800
C1909       C  0.52808311  0.68754148  0.48817681    -0.25100
C1910       C  0.52483288  0.71549063  0.48358901    -0.24300
C1911       C  0.49225548  0.70892071  0.47878353     0.40300
C1912       C  0.46376947  0.67539903  0.47916082    -0.26800
O1913       O  0.50362936  0.62776080  0.49346423    -0.58700
H1914       H  0.55263831  0.69162973  0.49195067     0.15900
O1915       O  0.48751325  0.73510017  0.47423041    -0.60100
H1916       H  0.43887232  0.67088636  0.47564553     0.14300
H1917       H  0.39811865  0.53241831  0.45731656     0.46200
H1918       H  0.51391214  0.62161277  0.48529206     0.41600
H1919       H  0.49150148  0.73656307  0.46358559     0.45000
H1920       H  0.41826252  0.63068641  0.51061037     0.36500
C1921       C  0.24125128  0.36967113  0.55768402    -0.27700
C1922       C  0.23214232  0.38288225  0.56958271     0.01900
C1923       C  0.22866109  0.41183878  0.56775937     0.29900
C1924       C  0.23341679  0.42667787  0.55406838    -0.19500
C1925       C  0.24134634  0.41285627  0.54191814    -0.28900
C1926       C  0.24601674  0.38444511  0.54393445     0.44000
C1927       C  0.22415966  0.36508746  0.58366783     0.05200
O1928       O  0.21941191  0.42510625  0.57919200    -0.57500
H1929       H  0.22989331  0.44856761  0.55294945     0.18100
O1930       O  0.25381864  0.36993465  0.53251221    -0.64200
H1931       H  0.24409312  0.34740686  0.55902561     0.16600
C1932       C  0.19726844  0.33077639  0.58481592     0.28800
C1933       C  0.18825215  0.31498160  0.59838765    -0.25100
C1934       C  0.20548748  0.33306527  0.61105386    -0.24300
C1935       C  0.23309736  0.36726575  0.60979558     0.40300
C1936       C  0.24208238  0.38300856  0.59615804    -0.26800
O1937       O  0.17877242  0.31286841  0.57279716    -0.58700
H1938       H  0.16700696  0.28871191  0.59901243     0.15900
O1939       O  0.25013754  0.38619399  0.62185957    -0.60100
H1940       H  0.26275875  0.40953003  0.59536135     0.14300
H1941       H  0.27928086  0.38106046  0.53260318     0.46200
H1942       H  0.16033813  0.31858750  0.57180276     0.41600
H1943       H  0.27422251  0.39152225  0.62066577     0.45000
H1944       H  0.19387102  0.41173475  0.57937027     0.36500
C1945       C  0.55626349  0.41436731  0.07586277    -0.27700
C1946       C  0.56388319  0.38796697  0.07700584     0.01900
C1947       C  0.57821298  0.38434098  0.08995107     0.29900
C1948       C  0.58210484  0.40527086  0.10197331    -0.19500
C1949       C  0.57094371  0.42915046  0.10124955    -0.28900
C1950       C  0.55945969  0.43472846  0.08791723     0.44000
C1951       C  0.55085511  0.36123519  0.06555885     0.05200
O1952       O  0.58652037  0.35914853  0.09118514    -0.57500
H1953       H  0.59043662  0.40035456  0.11225824     0.18100
O1954       O  0.54786077  0.45747361  0.08699889    -0.64200
H1955       H  0.54501511  0.41722007  0.06595658     0.16600
C1956       C  0.51913958  0.33051835  0.06756012     0.28800
C1957       C  0.50202733  0.30924593  0.05562960    -0.25100
C1958       C  0.51632365  0.31822844  0.04168542    -0.24300
C1959       C  0.54913162  0.34769329  0.03987300     0.40300
C1960       C  0.56611528  0.36908463  0.05177006    -0.26800
O1961       O  0.50329166  0.32268296  0.08089227    -0.58700
H1962       H  0.47635427  0.28729555  0.05707253     0.15900
O1963       O  0.56285542  0.35800492  0.02624146    -0.60100
H1964       H  0.59006237  0.39302905  0.05005314     0.14300
H1965       H  0.56893416  0.48043980  0.08615965     0.46200
H1966       H  0.48947961  0.33416102  0.08114188     0.41600
H1967       H  0.57425293  0.34464057  0.02400935     0.45000
H1968       H  0.56633508  0.33958091  0.09592039     0.36500
C1969       C  0.37188304  0.57517895  0.38941002    -0.27700
C1970       C  0.37695514  0.56332194  0.40266362     0.01900
C1971       C  0.40562890  0.55909230  0.40439909     0.29900
C1972       C  0.42694311  0.56358110  0.39251073    -0.19500
C1973       C  0.42045126  0.57308686  0.37894403    -0.28900
C1974       C  0.39356365  0.58022080  0.37757353     0.44000
C1975       C  0.34941767  0.54942677  0.41371373     0.05200
O1976       O  0.41070464  0.54686986  0.41720134    -0.57500
H1977       H  0.44682559  0.55696560  0.39357859     0.18100
O1978       O  0.38617673  0.58871258  0.36431449    -0.64200
H1979       H  0.34972104  0.57820796  0.38795048     0.16600
C1980       C  0.35363757  0.56632386  0.42707405     0.28800
C1981       C  0.33140303  0.54874497  0.43863224    -0.25100
C1982       C  0.30535142  0.51416477  0.43704756    -0.24300
C1983       C  0.29941930  0.49828769  0.42333903     0.40300
C1984       C  0.32114575  0.51614036  0.41169087    -0.26800
O1985       O  0.38118201  0.59876157  0.42931456    -0.58700
H1986       H  0.33680028  0.56095427  0.44924462     0.15900
O1987       O  0.27392809  0.46462287  0.42152440    -0.60100
H1988       H  0.31768038  0.50295043  0.40140575     0.14300
H1989       H  0.36731128  0.56685992  0.36021982     0.46200
H1990       H  0.37360150  0.61449350  0.42567755     0.41600
H1991       H  0.28562846  0.45109710  0.42228834     0.45000
H1992       H  0.42560257  0.56763794  0.42311718     0.36500
C1993       C  0.53502411  0.50502123  0.23149097    -0.27700
C1994       C  0.50582034  0.50841132  0.23201746     0.01900
C1995       C  0.48828854  0.50620431  0.21907979     0.29900
C1996       C  0.50048559  0.50136194  0.20579186    -0.19500
C1997       C  0.53024308  0.49869867  0.20514934    -0.28900
C1998       C  0.54728982  0.50019936  0.21823965     0.44000
C1999       C  0.49602592  0.51737070  0.24598392     0.05200
O2000       O  0.45973443  0.50960971  0.21928576    -0.57500
H2001       H  0.48724459  0.50083648  0.19592433     0.18100
O2002       O  0.57636473  0.49768575  0.21823240    -0.64200
H2003       H  0.54898688  0.50712423  0.24137886     0.16600
C2004       C  0.48649170  0.49534847  0.25801204     0.28800
C2005       C  0.48179672  0.50644091  0.27162314    -0.25100
C2006       C  0.48697453  0.53970401  0.27354478    -0.24300
C2007       C  0.49501965  0.56107594  0.26119731     0.40300
C2008       C  0.49949872  0.54981199  0.24762718    -0.26800
O2009       O  0.48168141  0.46294165  0.25653184    -0.58700
H2010       H  0.47515494  0.48927661  0.28076506     0.15900
O2011       O  0.49989175  0.59356156  0.26227114    -0.60100
H2012       H  0.50699769  0.56704121  0.23842650     0.14300
H2013       H  0.56800896  0.47293464  0.21971786     0.46200
H2014       H  0.50313014  0.46465624  0.26025476     0.41600
H2015       H  0.47690423  0.59072540  0.26045942     0.45000
H2016       H  0.43996607  0.48594283  0.22057710     0.36500
C2017       C  0.81563851  0.51885838  0.06166966    -0.27700
C2018       C  0.83516798  0.53733173  0.07378664     0.01900
C2019       C  0.84651796  0.57256850  0.07502056     0.29900
C2020       C  0.84137166  0.58961930  0.06353856    -0.19500
C2021       C  0.82492415  0.57196503  0.05068752    -0.28900
C2022       C  0.81032547  0.53590903  0.05014379     0.44000
C2023       C  0.84889994  0.52173706  0.08381831     0.05200
O2024       O  0.86583802  0.59126582  0.08673981    -0.57500
H2025       H  0.85294887  0.61730189  0.06416833     0.18100
O2026       O  0.79402303  0.51766558  0.03782565    -0.64200
H2027       H  0.80677789  0.49169610  0.06064735     0.16600
C2028       C  0.83287137  0.50763740  0.09717101     0.28800
C2029       C  0.85010973  0.49939880  0.10761556    -0.25100
C2030       C  0.88368243  0.50595701  0.10501310    -0.24300
C2031       C  0.89871783  0.51804312  0.09129249     0.40300
C2032       C  0.88118240  0.52553973  0.08075618    -0.26800
O2033       O  0.80195489  0.50489623  0.10061364    -0.58700
H2034       H  0.83869314  0.49127498  0.11830274     0.15900
O2035       O  0.93175887  0.52556802  0.08857185    -0.60100
H2036       H  0.89384901  0.53666498  0.07052826     0.14300
H2037       H  0.81208258  0.51653852  0.03207495     0.46200
H2038       H  0.78430651  0.48089846  0.09810290     0.41600
H2039       H  0.92945093  0.50372952  0.08500433     0.45000
H2040       H  0.84886820  0.58748826  0.09445253     0.36500
C2041       C  0.74461851  0.54521254  0.15471946    -0.27700
C2042       C  0.75058195  0.51768062  0.15335227     0.01900
C2043       C  0.72216335  0.48424995  0.15114257     0.29900
C2044       C  0.68862988  0.47870988  0.15081233    -0.19500
C2045       C  0.68261292  0.50616039  0.15252211    -0.28900
C2046       C  0.71114894  0.53977263  0.15419962     0.44000
C2047       C  0.78639143  0.52399862  0.15406245     0.05200
O2048       O  0.72681479  0.45670931  0.14929060    -0.57500
H2049       H  0.66721450  0.45269448  0.14946594     0.18100
O2050       O  0.70674458  0.56765799  0.15500659    -0.64200
H2051       H  0.76595484  0.57110014  0.15642585     0.16600
C2052       C  0.81304985  0.54977755  0.14560822     0.28800
C2053       C  0.84571143  0.55319379  0.14549202    -0.25100
C2054       C  0.85257771  0.53107725  0.15363193    -0.24300
C2055       C  0.82640728  0.50647247  0.16268191     0.40300
C2056       C  0.79382094  0.50329665  0.16291312    -0.26800
O2057       O  0.80672211  0.56989734  0.13649520    -0.58700
H2058       H  0.86509061  0.57195135  0.13826388     0.15900
O2059       O  0.83188944  0.48450115  0.17093905    -0.60100
H2060       H  0.77398542  0.48396619  0.16980657     0.14300
H2061       H  0.70892291  0.57382205  0.16546844     0.46200
H2062       H  0.81893054  0.59323785  0.14088654     0.41600
H2063       H  0.84163620  0.49692838  0.18021814     0.45000
H2064       H  0.73265361  0.45704146  0.13887045     0.36500
C2065       C  0.22022991  0.69084003  0.39210227    -0.27700
C2066       C  0.20346673  0.68064335  0.40554422     0.01900
C2067       C  0.17299349  0.64836237  0.40669437     0.29900
C2068       C  0.15829020  0.62801111  0.39422022    -0.19500
C2069       C  0.17390817  0.63938823  0.38058792    -0.28900
C2070       C  0.20562641  0.67053757  0.37967692     0.44000
C2071       C  0.21447824  0.70616012  0.41751928     0.05200
O2072       O  0.15552839  0.63821270  0.41962886    -0.57500
H2073       H  0.13329624  0.60478828  0.39500588     0.18100
O2074       O  0.22111402  0.68263302  0.36644306    -0.64200
H2075       H  0.24350230  0.71570845  0.39105541     0.16600
C2076       C  0.22967014  0.70302899  0.43031012     0.28800
C2077       C  0.23600414  0.72555957  0.44203181    -0.25100
C2078       C  0.22687933  0.75102000  0.44119263    -0.24300
C2079       C  0.21340972  0.75519798  0.42809491     0.40300
C2080       C  0.20756819  0.73305128  0.41635275    -0.26800
O2081       O  0.23660011  0.67692952  0.43174112    -0.58700
H2082       H  0.24545473  0.72135722  0.45217526     0.15900
O2083       O  0.20357893  0.77930356  0.42705495    -0.60100
H2084       H  0.19591275  0.73575126  0.40654305     0.14300
H2085       H  0.21436933  0.69947160  0.36344832     0.46200
H2086       H  0.26036275  0.68642354  0.42798682     0.41600
H2087       H  0.22325923  0.79943007  0.42235184     0.45000
H2088       H  0.16468461  0.62507392  0.42458491     0.36500
C2089       C  0.00746544  0.50937846  0.23099289    -0.27700
C2090       C  0.02773298  0.54462878  0.23386947     0.01900
C2091       C  0.03157853  0.56840868  0.22322589     0.29900
C2092       C  0.01539545  0.55671451  0.20974437    -0.19500
C2093       C  0.99500983  0.52122220  0.20668280    -0.28900
C2094       C  0.99104322  0.49751284  0.21757692     0.44000
C2095       C  0.04531681  0.55582304  0.24798108     0.05200
O2096       O  0.05160870  0.60305570  0.22580138    -0.57500
H2097       H  0.01895619  0.57562567  0.20167409     0.18100
O2098       O  0.97204754  0.46272322  0.21516372    -0.64200
H2099       H  0.00458137  0.49094658  0.23918876     0.16600
C2100       C  0.02826941  0.55903284  0.26013689     0.28800
C2101       C  0.04314496  0.56420395  0.27392904    -0.25100
C2102       C  0.07494776  0.56586215  0.27582130    -0.24300
C2103       C  0.09275320  0.56443715  0.26339537     0.40300
C2104       C  0.07784943  0.55947278  0.24961885    -0.26800
O2105       O  0.99669356  0.55630616  0.25866464    -0.58700
H2106       H  0.02899926  0.56542651  0.28321600     0.15900
O2107       O  0.12468769  0.56784426  0.26455338    -0.60100
H2108       H  0.09117476  0.55720671  0.24023665     0.14300
H2109       H  0.94907733  0.45530565  0.21941458     0.46200
H2110       H  0.97964183  0.53158195  0.26008541     0.41600
H2111       H  0.12056832  0.54410863  0.26388219     0.45000
H2112       H  0.03565176  0.61002049  0.22987736     0.36500
C2113       C  0.32081003  0.55967855  0.32250787    -0.27700
C2114       C  0.29172006  0.53589183  0.33034782     0.01900
C2115       C  0.29248263  0.50911693  0.33775468     0.29900
C2116       C  0.32265127  0.50736845  0.33782387    -0.19500
C2117       C  0.35256003  0.53241466  0.33070287    -0.28900
C2118       C  0.35099585  0.55804148  0.32258475     0.44000
C2119       C  0.26133172  0.54023659  0.33127938     0.05200
O2120       O  0.26442525  0.48553654  0.34554064    -0.57500
H2121       H  0.32323159  0.48761432  0.34423298     0.18100
O2122       O  0.37919652  0.58240915  0.31511324    -0.64200
H2123       H  0.32033529  0.58009223  0.31657142     0.16600
C2124       C  0.26387896  0.56958073  0.33791967     0.28800
C2125       C  0.23513421  0.57372162  0.33850718    -0.25100
C2126       C  0.20348208  0.54906415  0.33234487    -0.24300
C2127       C  0.20095806  0.51930060  0.32588941     0.40300
C2128       C  0.22971516  0.51512536  0.32544221    -0.26800
O2129       O  0.29424736  0.59402364  0.34414357    -0.58700
H2130       H  0.23793800  0.59673130  0.34356722     0.15900
O2131       O  0.17088938  0.49452470  0.31959313    -0.60100
H2132       H  0.22748411  0.49243452  0.32029216     0.14300
H2133       H  0.37820013  0.57175175  0.30553705     0.46200
H2134       H  0.30528969  0.61257718  0.33682774     0.41600
H2135       H  0.15875418  0.47720153  0.32730176     0.45000
H2136       H  0.26697987  0.49611796  0.35527653     0.36500
C2137       C  0.70601525  0.24059020  0.05813276    -0.27700
C2138       C  0.70605004  0.22018477  0.06956316     0.01900
C2139       C  0.73148699  0.21086053  0.06989955     0.29900
C2140       C  0.75418264  0.21892749  0.05821323    -0.19500
C2141       C  0.75227099  0.23673354  0.04614770    -0.28900
C2142       C  0.72908922  0.24903327  0.04646154     0.44000
C2143       C  0.67701837  0.20437401  0.08000086     0.05200
O2144       O  0.73243372  0.19133172  0.08105488    -0.57500
H2145       H  0.77157217  0.20896256  0.05806679     0.18100
O2146       O  0.72575643  0.26542365  0.03462112    -0.64200
H2147       H  0.68649697  0.24782030  0.05773926     0.16600
C2148       C  0.67416183  0.22313334  0.09163206     0.28800
C2149       C  0.65082571  0.20568584  0.10297439    -0.25100
C2150       C  0.63031159  0.16959957  0.10278424    -0.24300
C2151       C  0.63065127  0.15147160  0.09034034     0.40300
C2152       C  0.65397380  0.16882793  0.07911325    -0.26800
O2153       O  0.69639382  0.25789188  0.09274879    -0.58700
H2154       H  0.65137304  0.21998703  0.11257167     0.15900
O2155       O  0.61072741  0.11630459  0.08973616    -0.60100
H2156       H  0.65560082  0.15417802  0.07009060     0.14300
H2157       H  0.74202352  0.29022104  0.03640466     0.46200
H2158       H  0.68498297  0.26846463  0.08745511     0.41600
H2159       H  0.58785027  0.11152016  0.08632208     0.45000
H2160       H  0.74873525  0.20814000  0.08823750     0.36500
C2161       C  0.75813672  0.24814243  0.15264946    -0.27700
C2162       C  0.75526077  0.27770824  0.15317600     0.01900
C2163       C  0.72223742  0.27377038  0.15379434     0.29900
C2164       C  0.69291461  0.24096494  0.15328440    -0.19500
C2165       C  0.69557515  0.21125654  0.15215884    -0.28900
C2166       C  0.72871994  0.21516591  0.15213183     0.44000
C2167       C  0.78665784  0.31253512  0.15284455     0.05200
O2168       O  0.71826880  0.30190572  0.15467136    -0.57500
H2169       H  0.66793578  0.23900491  0.15328491     0.18100
O2170       O  0.73275599  0.18704635  0.15156810    -0.64200
H2171       H  0.78331285  0.25061016  0.15219176     0.16600
C2172       C  0.81372021  0.32191618  0.16277987     0.28800
C2173       C  0.84261380  0.35513278  0.16250494    -0.25100
C2174       C  0.84516510  0.37971865  0.15246479    -0.24300
C2175       C  0.81830139  0.37016154  0.14236542     0.40300
C2176       C  0.78945571  0.33682608  0.14258759    -0.26800
O2177       O  0.81126512  0.29943277  0.17333829    -0.58700
H2178       H  0.86271408  0.36194400  0.17049517     0.15900
O2179       O  0.81991940  0.39307561  0.13222267    -0.60100
H2180       H  0.76914300  0.32989551  0.13469382     0.14300
H2181       H  0.73817791  0.18517230  0.14126831     0.46200
H2182       H  0.82743579  0.29173772  0.17032409     0.41600
H2183       H  0.83212026  0.39038218  0.12378940     0.45000
H2184       H  0.71952979  0.30731813  0.16519024     0.36500
C2185       C  0.57075965  0.27227204  0.14551603    -0.27700
C2186       C  0.53970834  0.26901778  0.15048632     0.01900
C2187       C  0.51345177  0.23682509  0.15545051     0.29900
C2188       C  0.51885508  0.20896590  0.15582487    -0.19500
C2189       C  0.55046826  0.21244730  0.15142005    -0.28900
C2190       C  0.57633398  0.24445273  0.14598898     0.44000
C2191       C  0.53537114  0.29953236  0.15075774     0.05200
O2192       O  0.48272420  0.23248771  0.16036563    -0.57500
H2193       H  0.49832676  0.18469104  0.15994651     0.18100
O2194       O  0.60773872  0.24942410  0.14174963    -0.64200
H2195       H  0.59101511  0.29667643  0.14138285     0.16600
C2196       C  0.56026473  0.33047519  0.15735573     0.28800
C2197       C  0.55686435  0.35957508  0.15680408    -0.25100
C2198       C  0.52893750  0.35872906  0.14960550    -0.24300
C2199       C  0.50316811  0.32721393  0.14356539     0.40300
C2200       C  0.50653699  0.29802945  0.14419483    -0.26800
O2201       O  0.58778558  0.33235043  0.16457402    -0.58700
H2202       H  0.57687651  0.38324871  0.16167067     0.15900
O2203       O  0.47532124  0.32486856  0.13647122    -0.60100
H2204       H  0.48713579  0.27444890  0.13904377     0.14300
H2205       H  0.60549556  0.24442808  0.13117120     0.46200
H2206       H  0.60809374  0.34642382  0.15830802     0.41600
H2207       H  0.48196672  0.32860331  0.12606390     0.45000
H2208       H  0.48685274  0.23995391  0.17068467     0.36500
C2209       C  0.56731201  0.86528642  0.41337528    -0.27700
C2210       C  0.53165362  0.85185657  0.41427229     0.01900
C2211       C  0.51319745  0.83147750  0.42619705     0.29900
C2212       C  0.53087614  0.82656052  0.43755110    -0.19500
C2213       C  0.56696514  0.84273744  0.43726234    -0.28900
C2214       C  0.58504642  0.86103640  0.42483103     0.44000
C2215       C  0.51552740  0.86401278  0.40383714     0.05200
O2216       O  0.47838637  0.81846240  0.42732809    -0.57500
H2217       H  0.51677367  0.81304189  0.44720688     0.18100
O2218       O  0.62031931  0.87742730  0.42437077    -0.64200
H2219       H  0.58170954  0.88119718  0.40423265     0.16600
C2220       C  0.52064762  0.89729317  0.40542831     0.28800
C2221       C  0.51253426  0.91217996  0.39400310    -0.25100
C2222       C  0.49932874  0.89416512  0.38093104    -0.24300
C2223       C  0.49116626  0.85962982  0.37987739     0.40300
C2224       C  0.49952090  0.84480605  0.39130901    -0.26800
O2225       O  0.53573565  0.91624221  0.41775379    -0.58700
H2226       H  0.51935796  0.93885764  0.39487650     0.15900
O2227       O  0.47957390  0.84185849  0.36702699    -0.60100
H2228       H  0.49579230  0.81927188  0.38997647     0.14300
H2229       H  0.62557384  0.85980979  0.42082418     0.46200
H2230       H  0.56064587  0.93028179  0.41546035     0.41600
H2231       H  0.45413242  0.83059191  0.36749857     0.45000
H2232       H  0.47595566  0.83659131  0.43237500     0.36500
C2233       C  0.24572126  0.75863301  0.33330667    -0.27700
C2234       C  0.27415270  0.75489153  0.33020188     0.01900
C2235       C  0.26873493  0.72215262  0.32675761     0.29900
C2236       C  0.23539389  0.69355001  0.32701057    -0.19500
C2237       C  0.20686701  0.69694460  0.33067046    -0.28900
C2238       C  0.21229415  0.73010374  0.33347482     0.44000
C2239       C  0.30925546  0.78547130  0.33041901     0.05200
O2240       O  0.29592392  0.71775373  0.32338504    -0.57500
H2241       H  0.23204628  0.66843448  0.32478723     0.18100
O2242       O  0.18557375  0.73475146  0.33743397    -0.64200
H2243       H  0.24956409  0.78373176  0.33601200     0.16600
C2244       C  0.31734425  0.81359070  0.32143493     0.28800
C2245       C  0.35030204  0.84256313  0.32178864    -0.25100
C2246       C  0.37589346  0.84442365  0.33112015    -0.24300
C2247       C  0.36778288  0.81618310  0.34018232     0.40300
C2248       C  0.33464256  0.78690828  0.33973565    -0.26800
O2249       O  0.29353105  0.81237118  0.31181500    -0.58700
H2250       H  0.35587964  0.86357219  0.31452410     0.15900
O2251       O  0.39179443  0.81691207  0.34953010    -0.60100
H2252       H  0.32859069  0.76544273  0.34680229     0.14300
H2253       H  0.17826901  0.74084054  0.32832055     0.46200
H2254       H  0.28526350  0.82701142  0.31618411     0.41600
H2255       H  0.38812698  0.82571338  0.35885666     0.45000
H2256       H  0.29935022  0.72173352  0.31276811     0.36500
C2257       C  0.49963956  0.80003665  0.32297346    -0.27700
C2258       C  0.51984823  0.79210640  0.33184781     0.01900
C2259       C  0.54545765  0.81813157  0.34064203     0.29900
C2260       C  0.54939219  0.85103627  0.34097770    -0.19500
C2261       C  0.52790659  0.85856219  0.33264114    -0.28900
C2262       C  0.50356750  0.83282744  0.32323761     0.44000
C2263       C  0.51362129  0.75648672  0.33187591     0.05200
O2264       O  0.56587892  0.81130740  0.34936490    -0.57500
H2265       H  0.56811273  0.87011664  0.34835800     0.18100
O2266       O  0.48262458  0.83900133  0.31455404    -0.64200
H2267       H  0.48038870  0.78051720  0.31589194     0.16600
C2268       C  0.48112536  0.72838129  0.33557804     0.28800
C2269       C  0.47524469  0.69476607  0.33487670    -0.25100
C2270       C  0.50128563  0.68840124  0.33026211    -0.24300
C2271       C  0.53409327  0.71682349  0.32684317     0.40300
C2272       C  0.53996054  0.75038302  0.32768958    -0.26800
O2273       O  0.45515306  0.73362727  0.34017408    -0.58700
H2274       H  0.44992937  0.67359601  0.33765199     0.15900
O2275       O  0.56055925  0.71223154  0.32238961    -0.60100
H2276       H  0.56504567  0.77173721  0.32476036     0.14300
H2277       H  0.49637133  0.84985468  0.30568308     0.46200
H2278       H  0.43951349  0.72766116  0.33171192     0.41600
H2279       H  0.57335730  0.71377960  0.33138262     0.45000
H2280       H  0.55248158  0.80180149  0.35843856     0.36500
C2281       C  0.50626951  0.03357448  0.22643282    -0.27700
C2282       C  0.53419674  0.03842417  0.23494274     0.01900
C2283       C  0.56759496  0.05539739  0.22892851     0.29900
C2284       C  0.57265904  0.06763959  0.21467522    -0.19500
C2285       C  0.54484569  0.06392138  0.20641412    -0.28900
C2286       C  0.51140287  0.04631772  0.21230929     0.44000
C2287       C  0.52790166  0.02529931  0.24999358     0.05200
O2288       O  0.59552132  0.06093857  0.23699988    -0.57500
H2289       H  0.59854291  0.08125596  0.21027228     0.18100
O2290       O  0.48355058  0.04142444  0.20434968    -0.64200
H2291       H  0.48032138  0.01980564  0.23076026     0.16600
C2292       C  0.50824295  0.03272918  0.25970313     0.28800
C2293       C  0.50023179  0.01786353  0.27347736    -0.25100
C2294       C  0.51250760  0.99643504  0.27790747    -0.24300
C2295       C  0.53298047  0.98975607  0.26843884     0.40300
C2296       C  0.54037025  0.00398755  0.25452953    -0.26800
O2297       O  0.49671842  0.05444544  0.25581438    -0.58700
H2298       H  0.48474410  0.02340110  0.28079220     0.15900
O2299       O  0.54496545  0.96853859  0.27253103    -0.60100
H2300       H  0.55514218  0.99766872  0.24715030     0.14300
H2301       H  0.47642140  0.02026085  0.19855580     0.46200
H2302       H  0.51444989  0.07742115  0.25947221     0.41600
H2303       H  0.52699054  0.94518302  0.26935535     0.45000
H2304       H  0.60317957  0.08295863  0.24220025     0.36500
C2305       C  0.10643301  0.75863384  0.15014086    -0.27700
C2306       C  0.10207446  0.74542258  0.16421809     0.01900
C2307       C  0.11503773  0.76844697  0.17610491     0.29900
C2308       C  0.13024987  0.80413013  0.17381123    -0.19500
C2309       C  0.13197727  0.81688508  0.15975216    -0.28900
C2310       C  0.12111643  0.79387471  0.14785793     0.44000
C2311       C  0.08023505  0.70759085  0.16603731     0.05200
O2312       O  0.11239226  0.75623375  0.18994696    -0.57500
H2313       H  0.13853711  0.82145960  0.18306028     0.18100
O2314       O  0.12282546  0.80544245  0.13394327    -0.64200
H2315       H  0.09661796  0.74130525  0.14089297     0.16600
C2316       C  0.04638916  0.69324341  0.17139301     0.28800
C2317       C  0.02281874  0.65802411  0.16959503    -0.25100
C2318       C  0.03254543  0.63643893  0.16265354    -0.24300
C2319       C  0.06704491  0.65031178  0.15824377     0.40300
C2320       C  0.09044960  0.68573067  0.15974109    -0.26800
O2321       O  0.03543558  0.71381001  0.17752387    -0.58700
H2322       H  0.99643865  0.64777167  0.17313951     0.15900
O2323       O  0.07729535  0.63016073  0.15120267    -0.60100
H2324       H  0.11618716  0.69646781  0.15532452     0.14300
H2325       H  0.14704756  0.81464273  0.13086032     0.46200
H2326       H  0.02651718  0.72119965  0.16932001     0.41600
H2327       H  0.08602353  0.62143326  0.15897061     0.45000
H2328       H  0.09321021  0.75768526  0.19451241     0.36500
C2329       C  0.33804146  0.96015171  0.14550884    -0.27700
C2330       C  0.36373571  0.98119520  0.15552051     0.01900
C2331       C  0.35462299  0.99274806  0.16804700     0.29900
C2332       C  0.32041067  0.98380584  0.17031791    -0.19500
C2333       C  0.29454734  0.96298615  0.16031346    -0.28900
C2334       C  0.30347921  0.95065614  0.14792849     0.44000
C2335       C  0.40061079  0.99463894  0.15233949     0.05200
O2336       O  0.37945144  0.01474738  0.17763608    -0.57500
H2337       H  0.31417656  0.99378299  0.17985749     0.18100
O2338       O  0.27919548  0.93152547  0.13763465    -0.64200
H2339       H  0.34492425  0.95176128  0.13566835     0.16600
C2340       C  0.42011602  0.98460493  0.16070987     0.28800
C2341       C  0.45626071  0.00465607  0.16066160    -0.25100
C2342       C  0.47301925  0.03520791  0.15262902    -0.24300
C2343       C  0.45353028  0.04305618  0.14310209     0.40300
C2344       C  0.41758502  0.02275400  0.14297580    -0.26800
O2345       O  0.40394822  0.95666057  0.16970511    -0.58700
H2346       H  0.47078698  0.99848919  0.16817770     0.15900
O2347       O  0.46914313  0.07285256  0.13518785    -0.60100
H2348       H  0.40285211  0.03085119  0.13655675     0.14300
H2349       H  0.27215168  0.90731711  0.13975425     0.46200
H2350       H  0.40603891  0.96625369  0.17962066     0.41600
H2351       H  0.47588615  0.06663959  0.12590545     0.45000
H2352       H  0.37747102  0.00040348  0.18611777     0.36500
C2353       C  0.42047476  0.90955398  0.91007757    -0.27700
C2354       C  0.39647714  0.87447041  0.90816015     0.01900
C2355       C  0.40086265  0.85651114  0.89662620     0.29900
C2356       C  0.42656704  0.87460825  0.88619485    -0.19500
C2357       C  0.44775766  0.91060042  0.88712924    -0.28900
C2358       C  0.44616370  0.92758603  0.89973907     0.44000
C2359       C  0.36475299  0.85893918  0.91707630     0.05200
O2360       O  0.37787219  0.82218119  0.89456169    -0.57500
H2361       H  0.42711001  0.86106649  0.87652664     0.18100
O2362       O  0.46707976  0.96249835  0.90123903    -0.64200
H2363       H  0.41770063  0.92351938  0.91909348     0.16600
C2364       C  0.35990143  0.83699471  0.92875636     0.28800
C2365       C  0.33422838  0.82995958  0.93913370    -0.25100
C2366       C  0.31369033  0.84516439  0.93806485    -0.24300
C2367       C  0.31599246  0.86364872  0.92539826     0.40300
C2368       C  0.34151023  0.87056455  0.91508339    -0.26800
O2369       O  0.38179155  0.82462420  0.93074650    -0.58700
H2370       H  0.33301205  0.81576036  0.94879299     0.15900
O2371       O  0.29566735  0.87793011  0.92369474    -0.60100
H2372       H  0.34471453  0.88709219  0.90598753     0.14300
H2373       H  0.48774225  0.96568159  0.90644470     0.46200
H2374       H  0.40111629  0.84238741  0.93663657     0.41600
H2375       H  0.27370781  0.85922860  0.91961277     0.45000
H2376       H  0.38796250  0.81017539  0.89974892     0.36500
C2377       C  0.02820929  0.71993200  0.99312789    -0.27700
C2378       C  0.03983586  0.75418492  0.98945363     0.01900
C2379       C  0.01563934  0.76481384  0.98767197     0.29900
C2380       C  0.98031404  0.74124784  0.98968272    -0.19500
C2381       C  0.96864587  0.70704176  0.99376088    -0.28900
C2382       C  0.99319353  0.69650332  0.99529230     0.44000
C2383       C  0.07752352  0.77828057  0.98812478     0.05200
O2384       O  0.02624534  0.79793959  0.98366434    -0.57500
H2385       H  0.96213534  0.75000505  0.98833462     0.18100
O2386       O  0.98349257  0.66346971  0.99912244    -0.64200
H2387       H  0.04656797  0.71141442  0.99459970     0.16600
C2388       C  0.09536987  0.80485554  0.99837825     0.28800
C2389       C  0.13149986  0.82221758  0.99899333    -0.25100
C2390       C  0.15013906  0.81291103  0.98966146    -0.24300
C2391       C  0.13244145  0.78807185  0.97877325     0.40300
C2392       C  0.09642911  0.77111664  0.97799906    -0.26800
O2393       O  0.07770190  0.81193729  0.00865581    -0.58700
H2394       H  0.14467244  0.84053391  0.00770025     0.15900
O2395       O  0.15008867  0.77874800  0.96941537    -0.60100
H2396       H  0.08308346  0.75071793  0.97007167     0.14300
H2397       H  0.97927144  0.65081512  0.98979900     0.46200
H2398       H  0.07375440  0.79602443  0.01679280     0.41600
H2399       H  0.14828239  0.75774623  0.97365807     0.45000
H2400       H  0.02424981  0.80928799  0.99256793     0.36500
C2401       C  0.34647428  0.03567238  0.00164444    -0.27700
C2402       C  0.32355723  0.04660362  0.99770292     0.01900
C2403       C  0.28934101  0.02196729  0.99411910     0.29900
C2404       C  0.27894581  0.98696033  0.99371777    -0.19500
C2405       C  0.30266064  0.97625078  0.99653954    -0.28900
C2406       C  0.33632160  0.00082099  0.00103116     0.44000
C2407       C  0.33748434  0.08348107  0.99472478     0.05200
O2408       O  0.26658298  0.03206922  0.99004976    -0.57500
H2409       H  0.25300880  0.96845357  0.99024243     0.18100
O2410       O  0.36001795  0.99125113  0.00416280    -0.64200
H2411       H  0.37297229  0.05443544  0.00429057     0.16600
C2412       C  0.34990079  0.10840486  0.00587971     0.28800
C2413       C  0.36824389  0.14354291  0.00236370    -0.25100
C2414       C  0.37512865  0.15389667  0.98778260    -0.24300
C2415       C  0.36114013  0.12885843  0.97668736     0.40300
C2416       C  0.34235057  0.09402897  0.98019905    -0.26800
O2417       O  0.34497624  0.09862193  0.02017713    -0.58700
H2418       H  0.37908490  0.16252304  0.01100095     0.15900
O2419       O  0.36743493  0.13815554  0.96233930    -0.60100
H2420       H  0.33316406  0.07506963  0.97152771     0.14300
H2421       H  0.35544391  0.98343144  0.01440142     0.46200
H2422       H  0.36633547  0.09905197  0.02313256     0.41600
H2423       H  0.34981781  0.14408125  0.95959804     0.45000
H2424       H  0.25758796  0.03586335  0.99928897     0.36500
C2425       C  0.23081730  0.90167014  0.06069782    -0.27700
C2426       C  0.20920498  0.87536680  0.07021340     0.01900
C2427       C  0.19563966  0.84093643  0.06603618     0.29900
C2428       C  0.20340707  0.83307205  0.05234607    -0.19500
C2429       C  0.22481235  0.85927787  0.04256674    -0.28900
C2430       C  0.23860205  0.89395964  0.04694229     0.44000
C2431       C  0.19993559  0.88400486  0.08432363     0.05200
O2432       O  0.17401730  0.81478252  0.07512925    -0.57500
H2433       H  0.19221922  0.80624922  0.04936061     0.18100
O2434       O  0.25988859  0.92058932  0.03797752    -0.64200
H2435       H  0.24136523  0.92829925  0.06389560     0.16600
C2436       C  0.21930400  0.88789331  0.09684732     0.28800
C2437       C  0.20940609  0.89513947  0.11020859    -0.25100
C2438       C  0.18014439  0.89863860  0.11132870    -0.24300
C2439       C  0.16094131  0.89488580  0.09861084     0.40300
C2440       C  0.17105709  0.88780376  0.08526010    -0.26800
O2441       O  0.24738912  0.88374335  0.09619295    -0.58700
H2442       H  0.22429000  0.89723462  0.11976803     0.15900
O2443       O  0.13253812  0.89853643  0.09901111    -0.60100
H2444       H  0.15609205  0.88492292  0.07560281     0.14300
H2445       H  0.24455976  0.92684687  0.03282073     0.46200
H2446       H  0.26707746  0.90679888  0.09378119     0.41600
H2447       H  0.11250856  0.87476399  0.09937493     0.45000
H2448       H  0.18937011  0.81027522  0.08124456     0.36500
C2449       C  0.65269050  0.93394911  0.15518486    -0.27700
C2450       C  0.66156384  0.95791271  0.16654063     0.01900
C2451       C  0.68611287  0.96126834  0.17687701     0.29900
C2452       C  0.70408232  0.94369921  0.17483664    -0.19500
C2453       C  0.69769176  0.92252293  0.16262068    -0.28900
C2454       C  0.67055585  0.91627776  0.15318959     0.44000
C2455       C  0.64993828  0.98337204  0.16588132     0.05200
O2456       O  0.69382811  0.98299886  0.18857240    -0.57500
H2457       H  0.72503807  0.94889569  0.18213346     0.18100
O2458       O  0.66453949  0.89673420  0.14088687    -0.64200
H2459       H  0.63400705  0.93121585  0.14710512     0.16600
C2460       C  0.67411390  0.01822186  0.16324720     0.28800
C2461       C  0.66317321  0.04184040  0.16118690    -0.25100
C2462       C  0.62800124  0.03153296  0.16148136    -0.24300
C2463       C  0.60371742  0.99658941  0.16425296     0.40300
C2464       C  0.61478415  0.97283564  0.16637632    -0.26800
O2465       O  0.70857353  0.02931977  0.16211341    -0.58700
H2466       H  0.68249885  0.06836655  0.15905100     0.15900
O2467       O  0.56912817  0.98514822  0.16458820    -0.60100
H2468       H  0.59584411  0.94601201  0.16816042     0.14300
H2469       H  0.64868366  0.87272015  0.14398735     0.46200
H2470       H  0.71210405  0.02509767  0.15183663     0.41600
H2471       H  0.56087508  0.97718676  0.15454713     0.45000
H2472       H  0.71739183  0.00256422  0.18675697     0.36500
C2473       C  0.99681789  0.91580827  0.17095513    -0.27700
C2474       C  0.96946745  0.88259221  0.16788057     0.01900
C2475       C  0.97640862  0.85592894  0.16546910     0.29900
C2476       C  0.01046646  0.86298905  0.16549119    -0.19500
C2477       C  0.03814240  0.89644533  0.16816516    -0.28900
C2478       C  0.03087096  0.92278483  0.17131872     0.44000
C2479       C  0.93400032  0.87639492  0.16654468     0.05200
O2480       O  0.95022774  0.82334596  0.16216683    -0.57500
H2481       H  0.01519155  0.84221584  0.16310278     0.18100
O2482       O  0.05683734  0.95580298  0.17403121    -0.64200
H2483       H  0.99173893  0.93651501  0.17292390     0.16600
C2484       C  0.90746908  0.85329290  0.17577465     0.28800
C2485       C  0.87421547  0.84800199  0.17430899    -0.25100
C2486       C  0.86690225  0.86626556  0.16394908    -0.24300
C2487       C  0.89360366  0.88918806  0.15459524     0.40300
C2488       C  0.92673605  0.89404860  0.15595761    -0.26800
O2489       O  0.91410319  0.83680439  0.18664992    -0.58700
H2490       H  0.85460080  0.83095431  0.18190485     0.15900
O2491       O  0.88803347  0.90787170  0.14439542    -0.60100
H2492       H  0.94698311  0.91192578  0.14878189     0.14300
H2493       H  0.05946487  0.95743219  0.18475227     0.46200
H2494       H  0.91971934  0.85193763  0.19530251     0.41600
H2495       H  0.87850080  0.89242268  0.13583290     0.45000
H2496       H  0.94702047  0.80957654  0.17101245     0.36500
C2497       C  0.67873130  0.70466015  0.14491423    -0.27700
C2498       C  0.64327724  0.69187632  0.14650648     0.01900
C2499       C  0.63179481  0.71535677  0.14884667     0.29900
C2500       C  0.65575286  0.75057570  0.15058485    -0.19500
C2501       C  0.69129911  0.76285261  0.15002354    -0.28900
C2502       C  0.70257848  0.73968392  0.14656702     0.44000
C2503       C  0.61962045  0.65400556  0.14748253     0.05200
O2504       O  0.59730733  0.70399793  0.14999350    -0.57500
H2505       H  0.64654112  0.76801080  0.15306998     0.18100
O2506       O  0.73698334  0.75100683  0.14486020    -0.64200
H2507       H  0.68829345  0.68723553  0.14315375     0.16600
C2508       C  0.62224460  0.63131076  0.13764128     0.28800
C2509       C  0.60639086  0.59623276  0.14083863    -0.25100
C2510       C  0.58722574  0.58319852  0.15361882    -0.24300
C2511       C  0.58191926  0.60507846  0.16277242     0.40300
C2512       C  0.59817941  0.64026313  0.15972290    -0.26800
O2513       O  0.64206857  0.64346880  0.12535318    -0.58700
H2514       H  0.61072761  0.57952952  0.13375803     0.15900
O2515       O  0.56340158  0.59284066  0.17538194    -0.60100
H2516       H  0.59606390  0.65712872  0.16753740     0.14300
H2517       H  0.74405980  0.74451880  0.15393438     0.46200
H2518       H  0.62711962  0.64567448  0.11808233     0.41600
H2519       H  0.53910998  0.58411248  0.17256035     0.45000
H2520       H  0.58974933  0.70477024  0.13996397     0.36500
C2521       C  0.49888932  0.71117955  0.92638530    -0.27700
C2522       C  0.51150397  0.71494357  0.91217379     0.01900
C2523       C  0.54256610  0.74504542  0.90843760     0.29900
C2524       C  0.56214873  0.76921523  0.91920364    -0.19500
C2525       C  0.55080576  0.76385802  0.93364245    -0.28900
C2526       C  0.51824768  0.73551688  0.93707651     0.44000
C2527       C  0.49582843  0.68532967  0.90199780     0.05200
O2528       O  0.55541920  0.74958829  0.89457272    -0.57500
H2529       H  0.58742383  0.79056413  0.91650199     0.18100
O2530       O  0.50693627  0.72937958  0.95119860    -0.64200
H2531       H  0.47510817  0.68819932  0.92940009     0.16600
C2532       C  0.49761053  0.65568575  0.90502006     0.28800
C2533       C  0.49244411  0.63233858  0.89385468    -0.25100
C2534       C  0.48430766  0.63754427  0.87975799    -0.24300
C2535       C  0.47826448  0.66487201  0.87724660     0.40300
C2536       C  0.48453516  0.68880897  0.88829186    -0.26800
O2537       O  0.50838772  0.65146705  0.91836918    -0.58700
H2538       H  0.49744963  0.61167235  0.89593434     0.15900
O2539       O  0.47102123  0.67120934  0.86353752    -0.60100
H2540       H  0.48297378  0.71143081  0.88585057     0.14300
H2541       H  0.49530688  0.74281064  0.95270536     0.46200
H2542       H  0.48693048  0.63630300  0.92381506     0.41600
H2543       H  0.44564702  0.66074579  0.86329503     0.45000
H2544       H  0.56927996  0.73816384  0.89437500     0.36500
C2545       C  0.73523431  0.05814580  0.97668801    -0.27700
C2546       C  0.75736955  0.04681460  0.98137245     0.01900
C2547       C  0.79005281  0.07104499  0.98692248     0.29900
C2548       C  0.79933099  0.10572052  0.98846700    -0.19500
C2549       C  0.77589280  0.11636519  0.98491698    -0.28900
C2550       C  0.74417286  0.09248939  0.97847177     0.44000
C2551       C  0.74346963  0.00921777  0.98257432     0.05200
O2552       O  0.81267107  0.06081940  0.99112014    -0.57500
H2553       H  0.82397752  0.12378805  0.99328235     0.18100
O2554       O  0.72103303  0.10213704  0.97442289    -0.64200
H2555       H  0.70997309  0.03983936  0.97244811     0.16600
C2556       C  0.73784475  0.99421366  0.99643199     0.28800
C2557       C  0.71814072  0.95854912  0.99791609    -0.25100
C2558       C  0.70314172  0.93713623  0.98578118    -0.24300
C2559       C  0.71038985  0.95173078  0.97181550     0.40300
C2560       C  0.73032144  0.98766823  0.97028109    -0.26800
O2561       O  0.74876439  0.01429817  0.00872576    -0.58700
H2562       H  0.71219522  0.94770562  0.00874911     0.15900
O2563       O  0.69525696  0.93157159  0.95979471    -0.60100
H2564       H  0.73388374  0.99885055  0.95957377     0.14300
H2565       H  0.72853115  0.11225373  0.96461423     0.46200
H2566       H  0.72994357  0.01875985  0.01120993     0.41600
H2567       H  0.71091908  0.92321432  0.95683118     0.45000
H2568       H  0.81386260  0.06280099  0.00187029     0.36500
C2569       C  0.49917986  0.88888222  0.98939053    -0.27700
C2570       C  0.46989979  0.86816788  0.98098958     0.01900
C2571       C  0.47024430  0.84440680  0.97111450     0.29900
C2572       C  0.49929101  0.84075991  0.97015033    -0.19500
C2573       C  0.52834478  0.86072188  0.97890328    -0.28900
C2574       C  0.52825492  0.88541825  0.98841458     0.44000
C2575       C  0.43885923  0.87107109  0.98285307     0.05200
O2576       O  0.44264809  0.82541915  0.96209867    -0.57500
H2577       H  0.49891073  0.82203205  0.96262025     0.18100
O2578       O  0.55566310  0.90506829  0.99740321    -0.64200
H2579       H  0.49917367  0.90726623  0.99701389     0.16600
C2580       C  0.40783644  0.84298780  0.98781450     0.28800
C2581       C  0.37827226  0.84558043  0.98883428    -0.25100
C2582       C  0.37881488  0.87587508  0.98475226    -0.24300
C2583       C  0.41059428  0.90469865  0.98059578     0.40300
C2584       C  0.44024957  0.90210168  0.97969931    -0.26800
O2585       O  0.40637980  0.81306524  0.99188148    -0.58700
H2586       H  0.35449691  0.82310180  0.99224661     0.15900
O2587       O  0.41283069  0.93510929  0.97683038    -0.60100
H2588       H  0.46422146  0.92409677  0.97610970     0.14300
H2589       H  0.56945256  0.92727556  0.99228988     0.46200
H2590       H  0.39145828  0.79558608  0.98458038     0.41600
H2591       H  0.41824206  0.94848588  0.98600986     0.45000
H2592       H  0.43274948  0.80119194  0.96518968     0.36500
C2593       C  0.76980078  0.72694137  0.00648555    -0.27700
C2594       C  0.78454763  0.75502528  0.99700250     0.01900
C2595       C  0.81512244  0.76288651  0.98959870     0.29900
C2596       C  0.82873080  0.74098196  0.99076597    -0.19500
C2597       C  0.81152654  0.71061873  0.99893389    -0.28900
C2598       C  0.78292930  0.70477392  0.00744822     0.44000
C2599       C  0.76388550  0.77096473  0.99286597     0.05200
O2600       O  0.83068123  0.79079502  0.98056523    -0.57500
H2601       H  0.85054260  0.74584493  0.98405964     0.18100
O2602       O  0.76547381  0.67548581  0.01560384    -0.64200
H2603       H  0.74622102  0.72045299  0.01220876     0.16600
C2604       C  0.74609263  0.76188373  0.97953734     0.28800
C2605       C  0.72179135  0.77160790  0.97654371    -0.25100
C2606       C  0.71467116  0.79070814  0.98663234    -0.24300
C2607       C  0.73363207  0.80120648  0.99972774     0.40300
C2608       C  0.75774981  0.79098085  0.00283145    -0.26800
O2609       O  0.75114211  0.74208330  0.96959989    -0.58700
H2610       H  0.70776082  0.76337845  0.96637412     0.15900
O2611       O  0.72770470  0.82004667  0.00983529    -0.60100
H2612       H  0.77090170  0.79777988  0.01321389     0.14300
H2613       H  0.77647634  0.68183014  0.02532156     0.46200
H2614       H  0.73516418  0.71795968  0.97254345     0.41600
H2615       H  0.71033074  0.80289482  0.01657093     0.45000
H2616       H  0.82401186  0.78132455  0.97058197     0.36500
C2617       C  0.68435550  0.84568867  0.08929454    -0.27700
C2618       C  0.69959300  0.87112152  0.07859900     0.01900
C2619       C  0.72737541  0.90368129  0.08231742     0.29900
C2620       C  0.73992913  0.91033133  0.09655064    -0.19500
C2621       C  0.72538665  0.88469911  0.10725981    -0.28900
C2622       C  0.69704244  0.85219810  0.10353721     0.44000
C2623       C  0.68549223  0.86389200  0.06370358     0.05200
O2624       O  0.74155236  0.92951139  0.07222076    -0.57500
H2625       H  0.76151523  0.93557637  0.09912809     0.18100
O2626       O  0.68140031  0.82667263  0.11369380    -0.64200
H2627       H  0.66262017  0.82065090  0.08655516     0.16600
C2628       C  0.70551428  0.86477412  0.05176557     0.28800
C2629       C  0.69191864  0.85917611  0.03769562    -0.25100
C2630       C  0.65839461  0.85285574  0.03529840    -0.24300
C2631       C  0.63824349  0.85146742  0.04737587     0.40300
C2632       C  0.65176269  0.85661850  0.06142046    -0.26800
O2633       O  0.73849285  0.87140044  0.05373571    -0.58700
H2634       H  0.70796268  0.86060312  0.02862334     0.15900
O2635       O  0.60507308  0.84450267  0.04563105    -0.60100
H2636       H  0.63607851  0.85566195  0.07056109     0.14300
H2637       H  0.66424648  0.83094221  0.11856200     0.46200
H2638       H  0.73607839  0.84869993  0.05568544     0.41600
H2639       H  0.60652701  0.86714729  0.04625519     0.45000
H2640       H  0.76404464  0.93193441  0.06960639     0.36500
C2641       C  0.38056947  0.44254298  0.16658761    -0.27700
C2642       C  0.35572041  0.42191403  0.15622662     0.01900
C2643       C  0.36591015  0.41114031  0.14377137     0.29900
C2644       C  0.40022675  0.41977050  0.14207925    -0.19500
C2645       C  0.42505088  0.43936783  0.15266031    -0.28900
C2646       C  0.41512594  0.45153186  0.16482167     0.44000
C2647       C  0.31857526  0.40642691  0.15943632     0.05200
O2648       O  0.34210864  0.39075223  0.13350793    -0.57500
H2649       H  0.40729942  0.41040715  0.13258616     0.18100
O2650       O  0.43849923  0.47057842  0.17542519    -0.64200
H2651       H  0.37288108  0.45045628  0.17634350     0.16600
C2652       C  0.30259796  0.37771784  0.16864181     0.28800
C2653       C  0.26672958  0.35695416  0.16874971    -0.25100
C2654       C  0.24631847  0.36436953  0.15973311    -0.24300
C2655       C  0.26201633  0.39483090  0.15153896     0.40300
C2656       C  0.29810031  0.41556538  0.15131601    -0.26800
O2657       O  0.32197751  0.36791780  0.17651412    -0.58700
H2658       H  0.25500212  0.33325483  0.17490022     0.15900
O2659       O  0.24270488  0.40225053  0.14240277    -0.60100
H2660       H  0.31016103  0.43734997  0.14403758     0.14300
H2661       H  0.43727080  0.45350257  0.18250325     0.46200
H2662       H  0.32573403  0.35263137  0.16993969     0.41600
H2663       H  0.23602007  0.41637703  0.14830923     0.45000
H2664       H  0.33314366  0.36681603  0.13682475     0.36500
C2665       C  0.15513631  0.13192545  0.17143348    -0.27700
C2666       C  0.18293460  0.13460844  0.16339537     0.01900
C2667       C  0.20561535  0.16578918  0.15649377     0.29900
C2668       C  0.20054239  0.19381586  0.15785226    -0.19500
C2669       C  0.17275981  0.19131647  0.16593052    -0.28900
C2670       C  0.14971402  0.15973873  0.17262898     0.44000
C2671       C  0.18733911  0.10430287  0.16223086     0.05200
O2672       O  0.23146572  0.16838764  0.14768406    -0.57500
H2673       H  0.21808340  0.21736102  0.15222306     0.18100
O2674       O  0.12176571  0.15559973  0.18034150    -0.64200
H2675       H  0.13739193  0.10799339  0.17677524     0.16600
C2676       C  0.21774473  0.10568189  0.16690329     0.28800
C2677       C  0.21928347  0.07546329  0.16751464    -0.25100
C2678       C  0.19068574  0.04352230  0.16362389    -0.24300
C2679       C  0.16094472  0.04265098  0.15818718     0.40300
C2680       C  0.15958166  0.07286423  0.15747759    -0.26800
O2681       O  0.24483535  0.13580148  0.17215575    -0.58700
H2682       H  0.24219323  0.07683452  0.17194874     0.15900
O2683       O  0.13272827  0.01230785  0.15381781    -0.60100
H2684       H  0.13619544  0.07152652  0.15366499     0.14300
H2685       H  0.10240744  0.14580198  0.17330277     0.46200
H2686       H  0.26395309  0.14220634  0.16517831     0.41600
H2687       H  0.11590841  0.00567323  0.16188225     0.45000
H2688       H  0.25329371  0.18584281  0.15234514     0.36500
C2689       C  0.97043756  0.14414298  0.15535872    -0.27700
C2690       C  0.96974173  0.11688829  0.16300182     0.01900
C2691       C  0.99818062  0.12334833  0.17157903     0.26300
C2692       C  0.02661367  0.15653829  0.17247452    -0.19500
C2693       C  0.02709796  0.18404854  0.16514885    -0.28900
C2694       C  0.99882591  0.17762694  0.15644379     0.44000
C2695       C  0.93891140  0.08201928  0.16240389     0.05200
O2696       O  0.99801681  0.09758447  0.17948291    -0.57500
H2697       H  0.04794869  0.16097460  0.17938354     0.18100
O2698       O  0.99869716  0.20372600  0.14895568    -0.64200
H2699       H  0.94884773  0.13944115  0.14857812     0.16600
C2700       C  0.90632043  0.07669998  0.16621727     0.28800
C2701       C  0.87749315  0.04360042  0.16574691    -0.25100
C2702       C  0.88059939  0.01533148  0.16160614    -0.24300
C2703       C  0.91327864  0.02051105  0.15796934     0.40300
C2704       C  0.94215238  0.05371807  0.15837611    -0.26800
O2705       O  0.90266239  0.10352537  0.17097941    -0.58700
H2706       H  0.85257425  0.04001672  0.16868324     0.15900
O2707       O  0.91714223  0.99353304  0.15363459    -0.60100
H2708       H  0.96709725  0.05747254  0.15537087     0.14300
H2709       H  0.01001166  0.20488516  0.13954320     0.46200
H2710       H  0.89211403  0.10895679  0.16274044     0.41600
H2711       H  0.91388433  0.99202123  0.14294410     0.45000
H2712       H  0.98760478  0.09775218  0.18897277     0.36500
C2713       C  0.04821214  0.38178049  0.14803453    -0.27700
C2714       C  0.07306867  0.41693679  0.14846647     0.01900
C2715       C  0.10788763  0.42676822  0.15060597     0.29900
C2716       C  0.11707897  0.40162181  0.15273316    -0.19500
C2717       C  0.09183862  0.36645930  0.15292644    -0.28900
C2718       C  0.05726200  0.35675879  0.15011736     0.44000
C2719       C  0.06120866  0.44232934  0.14827987     0.05200
O2720       O  0.13296329  0.46084587  0.15109601    -0.57500
H2721       H  0.14379539  0.40971933  0.15481979     0.18100
O2722       O  0.03174185  0.32281082  0.14978976    -0.64200
H2723       H  0.02123186  0.37354632  0.14669238     0.16600
C2724       C  0.03725040  0.43998809  0.13781679     0.28800
C2725       C  0.01886813  0.45706640  0.14012416    -0.25100
C2726       C  0.02432788  0.47685869  0.15269856    -0.24300
C2727       C  0.05078420  0.48216242  0.16233974     0.40300
C2728       C  0.06896949  0.46490565  0.16012250    -0.26800
O2729       O  0.03067438  0.41986986  0.12563773    -0.58700
H2730       H  0.99844937  0.45265413  0.13265771     0.15900
O2731       O  0.05619444  0.50082356  0.17487329    -0.60100
H2732       H  0.08700722  0.46686567  0.16836420     0.14300
H2733       H  0.03138795  0.31518402  0.13963044     0.46200
H2734       H  0.00683802  0.40025785  0.12681964     0.41600
H2735       H  0.07107774  0.52517625  0.17197188     0.45000
H2736       H  0.13892691  0.46771925  0.14079999     0.36500
C2737       C  0.25094124  0.57483482  0.93024522    -0.27700
C2738       C  0.23514479  0.55790420  0.91726254     0.01900
C2739       C  0.22862088  0.52433483  0.91477446     0.29900
C2740       C  0.23526638  0.50707928  0.92571730    -0.19500
C2741       C  0.24824876  0.52285980  0.93925995    -0.28900
C2742       C  0.25781355  0.55765719  0.94118980     0.44000
C2743       C  0.21978912  0.57239995  0.90752456     0.05200
O2744       O  0.21320419  0.50726059  0.90211854    -0.57500
H2745       H  0.22734949  0.48026636  0.92409338     0.18100
O2746       O  0.26928589  0.57352626  0.95442099    -0.64200
H2747       H  0.25559019  0.60049678  0.93232201     0.16600
C2748       C  0.18561189  0.56433173  0.90988568     0.28800
C2749       C  0.16798670  0.57075732  0.89903550    -0.25100
C2750       C  0.18422999  0.58568624  0.88585214    -0.24300
C2751       C  0.21937419  0.59655245  0.88402299     0.40300
C2752       C  0.23697187  0.58979274  0.89485389    -0.26800
O2753       O  0.16813773  0.54687957  0.92211446    -0.58700
H2754       H  0.14072527  0.56132978  0.90039742     0.15900
O2755       O  0.23563701  0.61050479  0.87109252    -0.60100
H2756       H  0.26322471  0.59595070  0.89292749     0.14300
H2757       H  0.29476155  0.58589989  0.95374104     0.46200
H2758       H  0.17396977  0.56489689  0.92960433     0.41600
H2759       H  0.23291102  0.59081608  0.86519004     0.45000
H2760       H  0.18810280  0.49503501  0.90412319     0.36500
C2761       C  0.32263606  0.32305615  0.99988320    -0.27700
C2762       C  0.30902022  0.32138061  0.98603519     0.01900
C2763       C  0.31684490  0.30557072  0.97460112     0.29900
C2764       C  0.33930582  0.29301477  0.97700693    -0.19500
C2765       C  0.35464603  0.29680169  0.99069201    -0.28900
C2766       C  0.34551723  0.31128911  0.00222522     0.44000
C2767       C  0.29038234  0.34012814  0.98363109     0.05200
O2768       O  0.30399113  0.30374477  0.96093235    -0.57500
H2769       H  0.34640870  0.28234801  0.96798452     0.18100
O2770       O  0.35946589  0.31466626  0.01580390    -0.64200
H2771       H  0.31695237  0.33527534  0.00876478     0.16600
C2772       C  0.25906857  0.33015988  0.99079462     0.28800
C2773       C  0.24657059  0.35295284  0.99172442    -0.25100
C2774       C  0.26568740  0.38627902  0.98600550    -0.24300
C2775       C  0.29561480  0.39514064  0.97782597     0.40300
C2776       C  0.30750143  0.37194515  0.97655290    -0.26800
O2777       O  0.24153095  0.29889435  0.99758070    -0.58700
H2778       H  0.22367219  0.34570238  0.99812212     0.15900
O2779       O  0.31427276  0.42705261  0.97161966    -0.60100
H2780       H  0.33169124  0.37998240  0.97103659     0.14300
H2781       H  0.37796527  0.33912602  0.01659430     0.46200
H2782       H  0.24821697  0.30371097  0.00796419     0.41600
H2783       H  0.33465854  0.44018506  0.97798294     0.45000
H2784       H  0.28068513  0.28294176  0.96100312     0.36500
C2785       C  0.23729729  0.61049265  0.99708313    -0.27700
C2786       C  0.22313251  0.62125894  0.98627653     0.01900
C2787       C  0.20317331  0.59836024  0.97517485     0.29900
C2788       C  0.19861500  0.56534718  0.97466147    -0.19500
C2789       C  0.21398055  0.55478611  0.98513132    -0.28900
C2790       C  0.23314081  0.57764249  0.99653065     0.44000
C2791       C  0.22871291  0.65628580  0.98688858     0.05200
O2792       O  0.18862805  0.60830434  0.96462743    -0.57500
H2793       H  0.18421911  0.54853979  0.96569116     0.18100
O2794       O  0.24785009  0.56815942  0.00719788    -0.64200
H2795       H  0.25220653  0.62789613  0.00581839     0.16600
C2796       C  0.21120212  0.66465846  0.99722071     0.28800
C2797       C  0.21627252  0.69778296  0.99765875    -0.25100
C2798       C  0.23903051  0.72319629  0.98793448    -0.24300
C2799       C  0.25723860  0.71493622  0.97776496     0.40300
C2800       C  0.25163589  0.68143140  0.97718521    -0.26800
O2801       O  0.18904386  0.64056764  0.00693643    -0.58700
H2802       H  0.20238024  0.70361804  0.00572012     0.15900
O2803       O  0.27949620  0.73889546  0.96803583    -0.60100
H2804       H  0.26527821  0.67505791  0.96920771     0.14300
H2805       H  0.27253966  0.57907491  0.00451920     0.46200
H2806       H  0.16658488  0.62810024  0.00182553     0.41600
H2807       H  0.30260276  0.74889278  0.97255316     0.45000
H2808       H  0.16545667  0.60176311  0.96839322     0.36500
C2809       C  0.47053552  0.68935597  0.99419057    -0.27700
C2810       C  0.46418463  0.65648703  0.99046431     0.01900
C2811       C  0.49121628  0.65300249  0.98461411     0.29900
C2812       C  0.52360125  0.68225379  0.98210758    -0.19500
C2813       C  0.52960028  0.71532702  0.98527312    -0.28900
C2814       C  0.50278759  0.71859289  0.99163041     0.44000
C2815       C  0.42882123  0.62630275  0.99198025     0.05200
O2816       O  0.48540449  0.62137960  0.98024399    -0.57500
H2817       H  0.54345623  0.67910449  0.97693101     0.18100
O2818       O  0.50780197  0.75029295  0.99536389    -0.64200
H2819       H  0.45014452  0.69243098  0.99885329     0.16600
C2820       C  0.42258154  0.59733679  0.00004536     0.28800
C2821       C  0.38950148  0.56831505  0.00047559    -0.25100
C2822       C  0.36166503  0.56757797  0.99318063    -0.24300
C2823       C  0.36768346  0.59743098  0.98570961     0.40300
C2824       C  0.40102741  0.62627382  0.98508924    -0.26800
O2825       O  0.44865096  0.59713030  0.00760777    -0.58700
H2826       H  0.38578179  0.54625897  0.00659399     0.15900
O2827       O  0.34146549  0.59865618  0.97874480    -0.60100
H2828       H  0.40531824  0.64855748  0.97897565     0.14300
H2829       H  0.49654910  0.75617577  0.98756123     0.46200
H2830       H  0.44919576  0.60761366  0.01717683     0.41600
H2831       H  0.33201940  0.60789873  0.98605947     0.45000
H2832       H  0.49868314  0.61563662  0.98708820     0.36500
C2833       C  0.04572711  0.37078350  0.99734833    -0.27700
C2834       C  0.03351206  0.33580630  0.99968323     0.01900
C2835       C  0.05712118  0.32411010  0.99986554     0.29900
C2836       C  0.09230287  0.34723865  0.99740337    -0.19500
C2837       C  0.10438279  0.38214777  0.99457574    -0.28900
C2838       C  0.08061230  0.39383301  0.99481327     0.44000
C2839       C  0.99574483  0.31195182  0.00058906     0.05200
O2840       O  0.04596452  0.29005324  0.00214949    -0.57500
H2841       H  0.10997460  0.33763151  0.99731340     0.18100
O2842       O  0.09110605  0.42782858  0.99267718    -0.64200
H2843       H  0.02789702  0.38018967  0.99698205     0.16600
C2844       C  0.97558740  0.31835976  0.01041944     0.28800
C2845       C  0.93977488  0.30146656  0.00867886    -0.25100
C2846       C  0.92368474  0.27816530  0.99720983    -0.24300
C2847       C  0.94341776  0.26958516  0.98813343     0.40300
C2848       C  0.97924503  0.28640780  0.98988242    -0.26800
O2849       O  0.99092872  0.34225776  0.02133386    -0.58700
H2850       H  0.92486605  0.30858181  0.01560111     0.15900
O2851       O  0.92856290  0.24810180  0.97642711    -0.60100
H2852       H  0.99439602  0.28158692  0.98208915     0.14300
H2853       H  0.08579493  0.42940893  0.98235383     0.46200
H2854       H  0.98867923  0.36215810  0.01843627     0.41600
H2855       H  0.91799566  0.22452349  0.98041265     0.45000
H2856       H  0.04747810  0.28794104  0.01280606     0.36500
C2857       C  0.16863626  0.36205321  0.09110214    -0.27700
C2858       C  0.17425422  0.34465168  0.07973402     0.01900
C2859       C  0.17252923  0.31324197  0.08259054     0.29900
C2860       C  0.16677854  0.30042247  0.09674963    -0.19500
C2861       C  0.16237108  0.31837758  0.10830465    -0.28900
C2862       C  0.16279712  0.34927149  0.10528657     0.44000
C2863       C  0.18497558  0.36102338  0.06528421     0.05200
O2864       O  0.17719640  0.29524315  0.07164961    -0.57500
H2865       H  0.16623099  0.27650780  0.09869228     0.18100
O2866       O  0.15879202  0.36791570  0.11614141    -0.64200
H2867       H  0.17030113  0.38647813  0.08910513     0.16600
C2868       C  0.16520666  0.37188961  0.05766662     0.28800
C2869       C  0.17740901  0.38957131  0.04452987    -0.25100
C2870       C  0.20957636  0.39713554  0.03886037    -0.24300
C2871       C  0.22871159  0.38509496  0.04631690     0.40300
C2872       C  0.21646468  0.36746418  0.05942498    -0.26800
O2873       O  0.13366496  0.36473896  0.06284569    -0.58700
H2874       H  0.16188257  0.39801367  0.03895098     0.15900
O2875       O  0.25963000  0.39070008  0.04103969    -0.60100
H2876       H  0.23204395  0.35938342  0.06521212     0.14300
H2877       H  0.18240256  0.38392629  0.11976531     0.46200
H2878       H  0.13725489  0.38686596  0.06672392     0.41600
H2879       H  0.25372100  0.37065637  0.03466569     0.45000
H2880       H  0.15398087  0.28036792  0.06741236     0.36500
C2881       C  0.58222527  0.23350875  0.59645491    -0.27700
C2882       C  0.56500958  0.21555737  0.58383730     0.01900
C2883       C  0.55802210  0.18171791  0.58170497     0.29900
C2884       C  0.56524027  0.16510341  0.59272979    -0.19500
C2885       C  0.57934939  0.18184969  0.60597945    -0.28900
C2886       C  0.58974792  0.21696347  0.60747287     0.44000
C2887       C  0.54894782  0.22938758  0.57411317     0.05200
O2888       O  0.54165863  0.16383046  0.56932543    -0.57500
H2889       H  0.55680456  0.13807688  0.59145913     0.18100
O2890       O  0.60264389  0.23383752  0.62042086    -0.64200
H2891       H  0.58744370  0.25946836  0.59823354     0.16600
C2892       C  0.51407999  0.21922204  0.57608689     0.28800
C2893       C  0.49612968  0.22469680  0.56506528    -0.25100
C2894       C  0.51266821  0.24076818  0.55204762    -0.24300
C2895       C  0.54857036  0.25431939  0.55079360     0.40300
C2896       C  0.56637791  0.24818562  0.56174734    -0.26800
O2897       O  0.49652343  0.20092711  0.58814939    -0.58700
H2898       H  0.46860284  0.21397317  0.56622593     0.15900
O2899       O  0.56556886  0.26958680  0.53815944    -0.60100
H2900       H  0.59320973  0.25604685  0.56013197     0.14300
H2901       H  0.62771413  0.24244187  0.61999369     0.46200
H2902       H  0.50023725  0.21852512  0.59555669     0.41600
H2903       H  0.57496446  0.29454231  0.53971196     0.45000
H2904       H  0.51677363  0.15111254  0.57177140     0.36500
C2905       C  0.28777120  0.30876544  0.49999583    -0.27700
C2906       C  0.32280470  0.31878738  0.49926928     0.01900
C2907       C  0.34688876  0.35256987  0.49502033     0.29900
C2908       C  0.33605319  0.37579502  0.49176370    -0.19500
C2909       C  0.30114987  0.36629886  0.49264807    -0.28900
C2910       C  0.27685533  0.33225206  0.49677724     0.44000
C2911       C  0.33467504  0.29399172  0.50200293     0.05200
O2912       O  0.38097356  0.36254054  0.49322969    -0.57500
H2913       H  0.35537367  0.40150360  0.48846141     0.18100
O2914       O  0.24244373  0.32146197  0.49752488    -0.64200
H2915       H  0.26887502  0.28267808  0.50301940     0.16600
C2916       C  0.35988972  0.30115081  0.51264992     0.28800
C2917       C  0.37880245  0.28426223  0.51217817    -0.25100
C2918       C  0.37269373  0.25998638  0.50125728    -0.24300
C2919       C  0.34450745  0.24964686  0.49183423     0.40300
C2920       C  0.32576974  0.26677109  0.49219886    -0.26800
O2921       O  0.36738497  0.32599726  0.52301698    -0.58700
H2922       H  0.40038047  0.29244027  0.51952099     0.15900
O2923       O  0.33815534  0.22629705  0.48094647    -0.60100
H2924       H  0.30640319  0.26091281  0.48395824     0.14300
H2925       H  0.23346995  0.31333800  0.48757679     0.46200
H2926       H  0.39151991  0.34438192  0.52119037     0.41600
H2927       H  0.32322904  0.20348221  0.48543038     0.45000
H2928       H  0.39361350  0.38029387  0.50079525     0.36500
C2929       C  0.35987895  0.04389800  0.48985013    -0.27700
C2930       C  0.32447365  0.03201807  0.48910602     0.01900
C2931       C  0.31338103  0.05605513  0.49016222     0.29900
C2932       C  0.33744880  0.09113085  0.49234081    -0.19500
C2933       C  0.37280096  0.10280312  0.49369258    -0.28900
C2934       C  0.38389151  0.07875303  0.49213850     0.44000
C2935       C  0.29974594  0.99425592  0.48847588     0.05200
O2936       O  0.27902197  0.04544201  0.48939066    -0.57500
H2937       H  0.32828632  0.10904288  0.49347337     0.18100
O2938       O  0.41823408  0.08903073  0.49269372    -0.64200
H2939       H  0.36896699  0.02585038  0.48917654     0.16600
C2940       C  0.30300838  0.97348561  0.47783111     0.28800
C2941       C  0.28520025  0.93758657  0.47939410    -0.25100
C2942       C  0.26386200  0.92193367  0.49144665    -0.24300
C2943       C  0.25819131  0.94240077  0.50137323     0.40300
C2944       C  0.27607919  0.97828594  0.49985937    -0.26800
O2945       O  0.32450917  0.98822356  0.46615137    -0.58700
H2946       H  0.29009366  0.92218792  0.47176311     0.15900
O2947       O  0.23825741  0.92793053  0.51348200    -0.60100
H2948       H  0.27342156  0.99378057  0.50821965     0.14300
H2949       H  0.42203947  0.08303744  0.50259781     0.46200
H2950       H  0.34460141  0.98537538  0.46796467     0.41600
H2951       H  0.21444207  0.92065495  0.51039504     0.45000
H2952       H  0.27392590  0.04432327  0.47885916     0.36500
C2953       C  0.16991819  0.05272409  0.26247992    -0.27700
C2954       C  0.18788032  0.05883710  0.24935268     0.01900
C2955       C  0.22139376  0.08747285  0.24817367     0.29900
C2956       C  0.23760931  0.10782590  0.26041681    -0.19500
C2957       C  0.22068494  0.10001671  0.27389053    -0.28900
C2958       C  0.18596371  0.07331748  0.27469736     0.44000
C2959       C  0.17457361  0.03201575  0.23794157     0.05200
O2960       O  0.23951407  0.09397339  0.23543081    -0.57500
H2961       H  0.26439439  0.12798597  0.25966544     0.18100
O2962       O  0.16910711  0.06411724  0.28779435    -0.64200
H2963       H  0.14430772  0.03045318  0.26353243     0.16600
C2964       C  0.17839271  0.00312671  0.23955981     0.28800
C2965       C  0.17177967  0.98078645  0.22782471    -0.25100
C2966       C  0.16132529  0.98688650  0.21441072    -0.24300
C2967       C  0.15550887  0.01461884  0.21304214     0.40300
C2968       C  0.16230848  0.03712605  0.22477678    -0.26800
O2969       O  0.19105581  0.99800929  0.25224684    -0.58700
H2970       H  0.17748589  0.96028832  0.22885308     0.15900
O2971       O  0.14700231  0.02215093  0.19982221    -0.60100
H2972       H  0.15983857  0.05958616  0.22336223     0.14300
H2973       H  0.15668702  0.07696902  0.28843441     0.46200
H2974       H  0.21646255  0.01097351  0.25109064     0.41600
H2975       H  0.12147197  0.00910138  0.19955036     0.45000
H2976       H  0.25174854  0.08094752  0.23612227     0.36500
C2977       C  0.42766431  0.38419589  0.31077553    -0.27700
C2978       C  0.41353666  0.36154790  0.32256710     0.01900
C2979       C  0.41168291  0.37464784  0.33625575     0.29900
C2980       C  0.42217313  0.40937868  0.33784676    -0.19500
C2981       C  0.43499388  0.43181710  0.32597965    -0.28900
C2982       C  0.43883884  0.41929746  0.31247273     0.44000
C2983       C  0.39689450  0.32381362  0.32048119     0.05200
O2984       O  0.39794559  0.35331080  0.34800997    -0.57500
H2985       H  0.41921001  0.41863111  0.34833507     0.18100
O2986       O  0.45092116  0.44047841  0.30063842    -0.64200
H2987       H  0.42908311  0.37444972  0.30016909     0.16600
C2988       C  0.36664975  0.30606925  0.31211503     0.28800
C2989       C  0.34530038  0.27046495  0.31365698    -0.25100
C2990       C  0.35399138  0.25201396  0.32328881    -0.24300
C2991       C  0.38594608  0.26926315  0.33050997     0.40300
C2992       C  0.40717440  0.30495492  0.32906044    -0.26800
O2993       O  0.35573329  0.32372416  0.30372302    -0.58700
H2994       H  0.32067170  0.25761077  0.30811063     0.15900
O2995       O  0.39502066  0.25214575  0.34014969    -0.60100
H2996       H  0.43040086  0.31830525  0.33554723     0.14300
H2997       H  0.47606658  0.44937096  0.30049608     0.46200
H2998       H  0.36417013  0.32340751  0.29379096     0.41600
H2999       H  0.38526258  0.25359979  0.34962625     0.45000
H3000       H  0.37277387  0.34411661  0.34744046     0.36500
C3001       C  0.42844325  0.04090494  0.34039938    -0.27700
C3002       C  0.44004077  0.06873290  0.33085549     0.01900
C3003       C  0.46896102  0.07744278  0.32203064     0.29900
C3004       C  0.48418685  0.05683769  0.32207315    -0.19500
C3005       C  0.47028604  0.02697788  0.33058328    -0.28900
C3006       C  0.44314048  0.02001277  0.34024816     0.44000
C3007       C  0.41832826  0.08454655  0.32871772     0.05200
O3008       O  0.48150817  0.10514661  0.31289384    -0.57500
H3009       H  0.50466971  0.06236164  0.31442106     0.18100
O3010       O  0.42866584  0.99094733  0.34863048    -0.64200
H3011       H  0.40616973  0.03377781  0.34721140     0.16600
C3012       C  0.39811177  0.07697838  0.31608145     0.28800
C3013       C  0.37352071  0.08711735  0.31499820    -0.25100
C3014       C  0.36866869  0.10523463  0.32633483    -0.24300
C3015       C  0.38989355  0.11408821  0.33875054     0.40300
C3016       C  0.41418531  0.10337969  0.33994601    -0.26800
O3017       O  0.40124303  0.05843705  0.30493498    -0.58700
H3018       H  0.35772645  0.08025597  0.30530716     0.15900
O3019       O  0.38612777  0.13186464  0.35003603    -0.60100
H3020       H  0.42923061  0.10903971  0.34980820     0.14300
H3021       H  0.44369968  0.99716224  0.35730955     0.46200
H3022       H  0.38482812  0.03401197  0.30729087     0.41600
H3023       H  0.36806247  0.11403041  0.35633326     0.45000
H3024       H  0.47316652  0.09531792  0.30306868     0.36500
C3025       C  0.37411243  0.17658572  0.42921219    -0.27700
C3026       C  0.37976827  0.20264517  0.41944067     0.01900
C3027       C  0.39994778  0.23719727  0.42378701     0.29900
C3028       C  0.41361776  0.24536918  0.43781360    -0.19500
C3029       C  0.40765702  0.21944954  0.44783559    -0.28900
C3030       C  0.38768571  0.18466345  0.44333313     0.44000
C3031       C  0.36286373  0.19394982  0.40503529     0.05200
O3032       O  0.40616160  0.26325450  0.41441061    -0.57500
H3033       H  0.42886812  0.27226413  0.44082139     0.18100
O3034       O  0.38122245  0.15828882  0.45256005    -0.64200
H3035       H  0.35840198  0.14986262  0.42599755     0.16600
C3036       C  0.37082870  0.17666025  0.39435185     0.28800
C3037       C  0.35550882  0.17053823  0.38055926    -0.25100
C3038       C  0.33191830  0.18125316  0.37725859    -0.24300
C3039       C  0.32352522  0.19791329  0.38821122     0.40300
C3040       C  0.33896046  0.20407476  0.40188773    -0.26800
O3041       O  0.39456159  0.16693721  0.39710110    -0.58700
H3042       H  0.36240670  0.15772388  0.37240232     0.15900
O3043       O  0.29939681  0.20733993  0.38587917    -0.60100
H3044       H  0.33223747  0.21693068  0.41012165     0.14300
H3045       H  0.35907199  0.15204356  0.45735918     0.46200
H3046       H  0.38084413  0.14251064  0.40007669     0.41600
H3047       H  0.31281039  0.23228924  0.38372229     0.45000
H3048       H  0.42569248  0.26642129  0.40827917     0.36500
C3049       C  0.69569508  0.49877513  0.59222221    -0.27700
C3050       C  0.69149221  0.51263014  0.57935800     0.01900
C3051       C  0.66414572  0.51912736  0.57817377     0.29900
C3052       C  0.64342327  0.51480744  0.59028489    -0.19500
C3053       C  0.64938121  0.50345602  0.60350827    -0.28900
C3054       C  0.67463912  0.49392348  0.60424403     0.44000
C3055       C  0.71966900  0.52741976  0.56861156     0.05200
O3056       O  0.65934401  0.53236308  0.56560022    -0.57500
H3057       H  0.62445849  0.52275021  0.58966745     0.18100
O3058       O  0.68186651  0.48408230  0.61720019    -0.64200
H3059       H  0.71702268  0.49427599  0.59330505     0.16600
C3060       C  0.74771564  0.56086803  0.57088965     0.28800
C3061       C  0.77060564  0.57833284  0.55954586    -0.25100
C3062       C  0.76632005  0.56245253  0.54598332    -0.24300
C3063       C  0.74019706  0.52778757  0.54414627     0.40300
C3064       C  0.71673412  0.51056110  0.55540981    -0.26800
O3065       O  0.75076198  0.57794736  0.58367643    -0.58700
H3066       H  0.78992484  0.60522962  0.56095522     0.15900
O3067       O  0.73459903  0.51214175  0.53079801    -0.60100
H3068       H  0.69509166  0.48490152  0.55354248     0.14300
H3069       H  0.66698505  0.45870172  0.61736932     0.46200
H3070       H  0.76525279  0.57268923  0.59000351     0.41600
H3071       H  0.74988728  0.50231508  0.53053715     0.45000
H3072       H  0.67363675  0.55768665  0.56671948     0.36500
C3073       C  0.98351628  0.72935416  0.48167782    -0.27700
C3074       C  0.99387026  0.73817081  0.49616032     0.01900
C3075       C  0.96872793  0.72851863  0.50710275     0.29900
C3076       C  0.93360048  0.70882239  0.50349443    -0.19500
C3077       C  0.92350880  0.69780986  0.48911094    -0.28900
C3078       C  0.94873328  0.70915200  0.47812464     0.44000
C3079       C  0.03078853  0.75280444  0.49951894     0.05200
O3080       O  0.97831842  0.73746731  0.52132023    -0.57500
H3081       H  0.91446096  0.70017845  0.51205290     0.18100
O3082       O  0.93971326  0.69891479  0.46396077    -0.64200
H3083       H  0.00263355  0.73638751  0.47318210     0.16600
C3084       C  0.04207906  0.73162727  0.50553201     0.28800
C3085       C  0.07699551  0.74175225  0.50499656    -0.25100
C3086       C  0.10113680  0.77307545  0.49862278    -0.24300
C3087       C  0.09019153  0.79534368  0.49352234     0.40300
C3088       C  0.05513375  0.78500649  0.49389934    -0.26800
O3089       O  0.01887197  0.69989839  0.51100310    -0.58700
H3090       H  0.08502957  0.72438705  0.50900721     0.15900
O3091       O  0.11308704  0.82603673  0.48715663    -0.60100
H3092       H  0.04666066  0.80124034  0.48901514     0.14300
H3093       H  0.93532279  0.71640174  0.45964207     0.46200
H3094       H  0.01159290  0.68396641  0.50256240     0.41600
H3095       H  0.11320520  0.82061475  0.47670221     0.45000
H3096       H  0.97512731  0.71631587  0.52600690     0.36500
C3097       C  0.66628177  0.47231641  0.49112125    -0.27700
C3098       C  0.63901267  0.46545372  0.50054415     0.01900
C3099       C  0.64094610  0.49226701  0.50916105     0.29900
C3100       C  0.67038367  0.52507426  0.50859024    -0.19500
C3101       C  0.69834543  0.53155317  0.49964931    -0.28900
C3102       C  0.69590152  0.50493956  0.49071327     0.44000
C3103       C  0.60937649  0.42988451  0.50160245     0.05200
O3104       O  0.61551308  0.48590962  0.51903525    -0.57500
H3105       H  0.67219731  0.54487017  0.51587824     0.18100
O3106       O  0.72246177  0.51050060  0.48164310    -0.64200
H3107       H  0.66492980  0.45202611  0.48429607     0.16600
C3108       C  0.57554979  0.42260395  0.49916416     0.28800
C3109       C  0.54816760  0.38872140  0.49977004    -0.25100
C3110       C  0.55375283  0.36126595  0.50253635    -0.24300
C3111       C  0.58773420  0.36864790  0.50504910     0.40300
C3112       C  0.61513996  0.40273656  0.50461479    -0.26800
O3113       O  0.56900086  0.44828080  0.49575746    -0.58700
H3114       H  0.52244515  0.38396320  0.49771996     0.15900
O3115       O  0.59461477  0.34288371  0.50775298    -0.60100
H3116       H  0.64110072  0.40799615  0.50651800     0.14300
H3117       H  0.73459091  0.50029352  0.48666328     0.46200
H3118       H  0.57234400  0.45125673  0.48509484     0.41600
H3119       H  0.60060955  0.33717918  0.49816791     0.45000
H3120       H  0.60475564  0.49904014  0.51555859     0.36500
C3121       C  0.71591175  0.77638640  0.47584077    -0.27700
C3122       C  0.74350252  0.78681215  0.48551709     0.01900
C3123       C  0.75264266  0.81516652  0.49477740     0.29900
C3124       C  0.73211221  0.83035812  0.49531071    -0.19500
C3125       C  0.70213546  0.81707592  0.48687508    -0.28900
C3126       C  0.69516505  0.79121939  0.47652552     0.44000
C3127       C  0.75760546  0.76380278  0.48789582     0.05200
O3128       O  0.78037803  0.82671910  0.50394159    -0.57500
H3129       H  0.73761733  0.85003738  0.50340070     0.18100
O3130       O  0.66596282  0.77769916  0.46815807    -0.64200
H3131       H  0.70851243  0.75457509  0.46868993     0.16600
C3132       C  0.75064188  0.74569100  0.50105819     0.28800
C3133       C  0.76093944  0.72158686  0.50299986    -0.25100
C3134       C  0.77793921  0.71450288  0.49191242    -0.24300
C3135       C  0.78501001  0.73256462  0.47869828     0.40300
C3136       C  0.77474117  0.75699459  0.47674370    -0.26800
O3137       O  0.73245440  0.75034234  0.51192209    -0.58700
H3138       H  0.75484574  0.70770912  0.51317445     0.15900
O3139       O  0.80049050  0.72549628  0.46744791    -0.60100
H3140       H  0.77951507  0.77011973  0.46643138     0.14300
H3141       H  0.67136224  0.79474389  0.46034393     0.46200
H3142       H  0.70786603  0.73427702  0.50957633     0.41600
H3143       H  0.78127256  0.70761578  0.46154973     0.45000
H3144       H  0.77054970  0.81967662  0.51383499     0.36500
C3145       C  0.90006709  0.88591438  0.25457193    -0.27700
C3146       C  0.88170770  0.86655715  0.24239662     0.01900
C3147       C  0.87211519  0.83169719  0.24142685     0.29900
C3148       C  0.87829966  0.81584602  0.25309622    -0.19500
C3149       C  0.89418794  0.83445389  0.26579315    -0.28900
C3150       C  0.90657735  0.87010376  0.26622629     0.44000
C3151       C  0.86727384  0.88056907  0.23192557     0.05200
O3152       O  0.85442003  0.81235748  0.22953338    -0.57500
H3153       H  0.86810769  0.78834173  0.25271269     0.18100
O3154       O  0.92081446  0.88863134  0.27872252    -0.64200
H3155       H  0.90713526  0.91264855  0.25548514     0.16600
C3156       C  0.83346007  0.87392319  0.23390095     0.28800
C3157       C  0.81645948  0.87961273  0.22253488    -0.25100
C3158       C  0.83306838  0.89266394  0.20920283    -0.24300
C3159       C  0.86809382  0.90236593  0.20773591     0.40300
C3160       C  0.88483404  0.89587475  0.21902959    -0.26800
O3161       O  0.81579070  0.85891033  0.24644451    -0.58700
H3162       H  0.78953146  0.87173951  0.22381254     0.15900
O3163       O  0.88487064  0.91423846  0.19473093    -0.60100
H3164       H  0.91077217  0.90080685  0.21737556     0.14300
H3165       H  0.94596402  0.89825060  0.27764462     0.46200
H3166       H  0.82045877  0.87836016  0.25297181     0.41600
H3167       H  0.89748181  0.93964628  0.19563638     0.45000
H3168       H  0.82971118  0.80234517  0.23199241     0.36500
C3169       C  0.97566559  0.62397613  0.31133202    -0.27700
C3170       C  0.97081469  0.64360339  0.32195839     0.01900
C3171       C  0.99026185  0.65243800  0.33483706     0.29900
C3172       C  0.01473810  0.64257319  0.33681530    -0.19500
C3173       C  0.02043286  0.62372776  0.32610061    -0.28900
C3174       C  0.00000370  0.61360856  0.31341919     0.44000
C3175       C  0.94931814  0.65914859  0.31903688     0.05200
O3176       O  0.98661120  0.67213151  0.34530276    -0.57500
H3177       H  0.02999602  0.65046435  0.34667934     0.18100
O3178       O  0.00538716  0.59592630  0.30257179    -0.64200
H3179       H  0.96131509  0.61759487  0.30124765     0.16600
C3180       C  0.96220038  0.68809488  0.30997836     0.28800
C3181       C  0.94746597  0.70890946  0.31035109    -0.25100
C3182       C  0.91971573  0.70119013  0.31963390    -0.24300
C3183       C  0.90480801  0.67055143  0.32771280     0.40300
C3184       C  0.91984447  0.64987512  0.32748121    -0.26800
O3185       O  0.99115161  0.69800329  0.30173836    -0.58700
H3186       H  0.95952316  0.73268911  0.30425698     0.15900
O3187       O  0.87832253  0.66285233  0.33718364    -0.60100
H3188       H  0.91002301  0.62795900  0.33467395     0.14300
H3189       H  0.98750234  0.57148802  0.30404813     0.46200
H3190       H  0.01077701  0.71319436  0.30816008     0.41600
H3191       H  0.85708161  0.65052053  0.33124481     0.45000
H3192       H  0.00312843  0.69628605  0.34257247     0.36500
C3193       C  0.62806759  0.62178777  0.33907412    -0.27700
C3194       C  0.64989025  0.62405782  0.32763663     0.01900
C3195       C  0.63526819  0.60884640  0.31413483     0.29900
C3196       C  0.59974016  0.59387932  0.31191375    -0.19500
C3197       C  0.57830599  0.59352330  0.32306872    -0.28900
C3198       C  0.59242955  0.60647245  0.33687321     0.44000
C3199       C  0.68771683  0.64766464  0.32883583     0.05200
O3200       O  0.65582263  0.61079813  0.30271761    -0.57500
H3201       H  0.58917194  0.58429306  0.30119862     0.18100
O3202       O  0.57217056  0.60722471  0.34785100    -0.64200
H3203       H  0.63896651  0.63371467  0.34946604     0.16600
C3204       C  0.70084272  0.68325620  0.32998586     0.28800
C3205       C  0.73610676  0.70627626  0.32835374    -0.25100
C3206       C  0.75924445  0.69460447  0.32573722    -0.24300
C3207       C  0.74645853  0.65885244  0.32561013     0.40300
C3208       C  0.71081298  0.63563781  0.32700909    -0.26800
O3209       O  0.67902254  0.69592301  0.33147307    -0.58700
H3210       H  0.74522504  0.73357949  0.32863874     0.15900
O3211       O  0.76818794  0.64632972  0.32339581    -0.60100
H3212       H  0.70104472  0.60827319  0.32611984     0.14300
H3213       H  0.56147137  0.58417733  0.35238217     0.46200
H3214       H  0.67889090  0.70051128  0.34201814     0.41600
H3215       H  0.76788537  0.64254551  0.31275726     0.45000
H3216       H  0.66162291  0.63234381  0.29758587     0.36500
C3217       C  0.84498301  0.66196595  0.41476866    -0.27700
C3218       C  0.84826618  0.69440584  0.41365377     0.01900
C3219       C  0.84374290  0.70994571  0.42606307     0.29900
C3220       C  0.83668740  0.69320428  0.43947768    -0.19500
C3221       C  0.83446737  0.66108546  0.44077688    -0.28900
C3222       C  0.83840631  0.64537326  0.42815657     0.44000
C3223       C  0.85681863  0.71158068  0.39940335     0.05200
O3224       O  0.84541736  0.74107595  0.42509126    -0.57500
H3225       H  0.83397942  0.70595874  0.44894549     0.18100
O3226       O  0.83566062  0.61371135  0.42869829    -0.64200
H3227       H  0.84824429  0.64971788  0.40522367     0.16600
C3228       C  0.88825935  0.74226201  0.39713659     0.28800
C3229       C  0.89726947  0.75615053  0.38317397    -0.25100
C3230       C  0.87534776  0.73966873  0.37126835    -0.24300
C3231       C  0.84354016  0.70911056  0.37368706     0.40300
C3232       C  0.83459515  0.69541342  0.38765628    -0.26800
O3233       O  0.91082643  0.75826812  0.40839926    -0.58700
H3234       H  0.92175881  0.77962410  0.38164774     0.15900
O3235       O  0.82128421  0.69183822  0.36246867    -0.60100
H3236       H  0.81045286  0.67160653  0.38929257     0.14300
H3237       H  0.85971395  0.61849152  0.42885255     0.46200
H3238       H  0.92496871  0.74717267  0.40883607     0.41600
H3239       H  0.82825657  0.67562458  0.35871761     0.45000
H3240       H  0.86747297  0.75791047  0.42978485     0.36500
C3241       C  0.05970200  0.93838076  0.30982645    -0.27700
C3242       C  0.08716771  0.93455380  0.31462143     0.01900
C3243       C  0.08026744  0.90181173  0.31895007     0.29900
C3244       C  0.04638133  0.87383431  0.31871453    -0.19500
C3245       C  0.01865203  0.87768182  0.31422764    -0.28900
C3246       C  0.02577147  0.91047137  0.30965449     0.44000
C3247       C  0.12222790  0.96548817  0.31605065     0.05200
O3248       O  0.10604997  0.89743552  0.32445316    -0.57500
H3249       H  0.04180328  0.84915625  0.32246156     0.18100
O3250       O  0.99981211  0.91586746  0.30530318    -0.64200
H3251       H  0.06452322  0.96341117  0.30646211     0.16600
C3252       C  0.15142958  0.96757732  0.30937805     0.28800
C3253       C  0.18364903  0.99803249  0.31042268    -0.25100
C3254       C  0.18749070  0.02694165  0.31802913    -0.24300
C3255       C  0.15804445  0.02434579  0.32487834     0.40300
C3256       C  0.12613289  0.99389259  0.32393505    -0.26800
O3257       O  0.14822315  0.94096913  0.30092283    -0.58700
H3258       H  0.20537284  0.99936197  0.30473974     0.15900
O3259       O  0.15966685  0.05169253  0.33218720    -0.60100
H3260       H  0.10401009  0.99271847  0.32919502     0.14300
H3261       H  0.99295060  0.92347253  0.31418115     0.46200
H3262       H  0.16207126  0.93255214  0.30584961     0.41600
H3263       H  0.15161138  0.06259985  0.32511479     0.45000
H3264       H  0.10871996  0.88220653  0.31742475     0.36500
C3265       C  0.06075338  0.23204127  0.23812821    -0.27700
C3266       C  0.04378207  0.19605287  0.23854573     0.01900
C3267       C  0.05079842  0.17825117  0.22776463     0.29900
C3268       C  0.07241137  0.19636737  0.21604422    -0.19500
C3269       C  0.08700479  0.23216606  0.21500145    -0.28900
C3270       C  0.08220854  0.25009457  0.22647147     0.44000
C3271       C  0.01624075  0.17787222  0.24944593     0.05200
O3272       O  0.03437147  0.14305670  0.22793709    -0.57500
H3273       H  0.07527623  0.18213966  0.20716475     0.18100
O3274       O  0.09605810  0.28501970  0.22575653    -0.64200
H3275       H  0.05571653  0.24600761  0.24645349     0.16600
C3276       C  0.02316775  0.16786389  0.26283816     0.28800
C3277       C  0.99927937  0.15816516  0.27420672    -0.25100
C3278       C  0.96886729  0.15929596  0.27251230    -0.24300
C3279       C  0.96079663  0.16674237  0.25877638     0.40300
C3280       C  0.98438276  0.17581216  0.24732159    -0.26800
O3281       O  0.05434393  0.17030027  0.26529413    -0.58700
H3282       H  0.00634470  0.15355537  0.28485433     0.15900
O3283       O  0.93198876  0.16926884  0.25692390    -0.60100
H3284       H  0.97898880  0.18386232  0.23707928     0.14300
H3285       H  0.11970152  0.29503037  0.22971078     0.46200
H3286       H  0.06913711  0.19345760  0.26961136     0.41600
H3287       H  0.91297885  0.14536211  0.25521943     0.45000
H3288       H  0.05027752  0.13767867  0.23315043     0.36500
C3289       C  0.75748797  0.13865619  0.32391990    -0.27700
C3290       C  0.73891182  0.11039403  0.31460310     0.01900
C3291       C  0.75694457  0.09952598  0.30563993     0.29900
C3292       C  0.79255063  0.11405623  0.30735712    -0.19500
C3293       C  0.81055778  0.13963350  0.31789298    -0.28900
C3294       C  0.79322358  0.15353383  0.32551570     0.44000
C3295       C  0.70192265  0.08646727  0.31753819     0.05200
O3296       O  0.73947441  0.07239334  0.29623262    -0.57500
H3297       H  0.80555064  0.10317601  0.30137759     0.18100
O3298       O  0.80986807  0.17803330  0.33608333    -0.64200
H3299       H  0.74381910  0.14687242  0.33104719     0.16600
C3300       C  0.69295659  0.06188581  0.32853213     0.28800
C3301       C  0.65846903  0.03759993  0.33112475    -0.25100
C3302       C  0.63197885  0.03732903  0.32300014    -0.24300
C3303       C  0.64090065  0.06248065  0.31210684     0.40300
C3304       C  0.67581515  0.08670303  0.30935374    -0.26800
O3305       O  0.71801336  0.06073999  0.33652550    -0.58700
H3306       H  0.65247532  0.01879493  0.33959042     0.15900
O3307       O  0.61596113  0.06261128  0.30365543    -0.60100
H3308       H  0.68250100  0.10537160  0.30076901     0.14300
H3309       H  0.81903590  0.20034477  0.33103103     0.46200
H3310       H  0.72251825  0.07644415  0.34488052     0.41600
H3311       H  0.61166469  0.08011717  0.30813407     0.45000
H3312       H  0.73489810  0.05172176  0.30178372     0.36500
C3313       C  0.00976362  0.42716142  0.34168018    -0.27700
C3314       C  0.99134587  0.40516731  0.33007110     0.01900
C3315       C  0.99029896  0.41937346  0.31664669     0.29900
C3316       C  0.00994412  0.45497056  0.31460391    -0.19500
C3317       C  0.03056633  0.47670348  0.32586011    -0.28900
C3318       C  0.02918743  0.46283059  0.33965882     0.44000
C3319       C  0.98025917  0.36827446  0.33090938     0.05200
O3320       O  0.97272777  0.39846921  0.30509195    -0.57500
H3321       H  0.01119181  0.46536523  0.30388187     0.18100
O3322       O  0.04980710  0.48342229  0.35071385    -0.64200
H3323       H  0.01117129  0.41645930  0.35198992     0.16600
C3324       C  0.00542401  0.35865108  0.33078622     0.28800
C3325       C  0.99568450  0.32405699  0.32975359    -0.25100
C3326       C  0.96082315  0.29828381  0.32870178    -0.24300
C3327       C  0.93543705  0.30782734  0.32928106     0.40300
C3328       C  0.94530083  0.34272943  0.33029578    -0.26800
O3329       O  0.03981532  0.38309268  0.33109250    -0.58700
H3330       H  0.01570417  0.31749508  0.32939523     0.15900
O3331       O  0.90110564  0.28351797  0.32832134    -0.60100
H3332       H  0.92574924  0.34993563  0.33022104     0.14300
H3333       H  0.03554158  0.49088564  0.35603639     0.46200
H3334       H  0.04630138  0.38966758  0.32079930     0.41600
H3335       H  0.89590055  0.28059882  0.31776919     0.45000
H3336       H  0.98964270  0.39419112  0.30000400     0.36500
C3337       C  0.84227178  0.90854798  0.31581451    -0.27700
C3338       C  0.87469602  0.93844692  0.31719737     0.01900
C3339       C  0.90419518  0.93559011  0.31839390     0.29900
C3340       C  0.90119644  0.90326496  0.31760395    -0.19500
C3341       C  0.86897915  0.87324039  0.31544385    -0.28900
C3342       C  0.83920187  0.87611848  0.31493118     0.44000
C3343       C  0.87737260  0.97244063  0.31795554     0.05200
O3344       O  0.93592812  0.96422349  0.32077138    -0.57500
H3345       H  0.92452979  0.90201114  0.31825634     0.18100
O3346       O  0.80709445  0.84768248  0.31315838    -0.64200
H3347       H  0.81928997  0.91044626  0.31515520     0.16600
C3348       C  0.89703620  0.99846403  0.30783761     0.28800
C3349       C  0.90018201  0.03090662  0.30925489    -0.25100
C3350       C  0.88388004  0.03792191  0.32070722    -0.24300
C3351       C  0.86336622  0.01115921  0.33058865     0.40300
C3352       C  0.86040593  0.97896859  0.32914129    -0.26800
O3353       O  0.91218257  0.99193170  0.29626054    -0.58700
H3354       H  0.91552678  0.05058966  0.30137738     0.15900
O3355       O  0.84682789  0.01626012  0.34201994    -0.60100
H3356       H  0.84518821  0.95909555  0.33698062     0.14300
H3357       H  0.79856796  0.83972479  0.32315091     0.46200
H3358       H  0.93736353  0.00676782  0.29777554     0.41600
H3359       H  0.82301857  0.00781086  0.33854598     0.45000
H3360       H  0.94959349  0.96683497  0.31189881     0.36500
C3361       C  0.08514967  0.20365323  0.32884220    -0.27700
C3362       C  0.08303339  0.17237941  0.32511393     0.01900
C3363       C  0.05131861  0.14465389  0.32041148     0.29900
C3364       C  0.02260184  0.14846192  0.31932560    -0.19500
C3365       C  0.02479237  0.18003137  0.32252842    -0.28900
C3366       C  0.05639814  0.20768427  0.32752218     0.44000
C3367       C  0.11406765  0.16898005  0.32568569     0.05200
O3368       O  0.04837295  0.11402460  0.31628416    -0.57500
H3369       H  0.99885220  0.12684708  0.31527247     0.18100
O3370       O  0.05973237  0.23887381  0.33086535    -0.64200
H3371       H  0.10928616  0.22514019  0.33265156     0.16600
C3372       C  0.14481732  0.19291549  0.31865648     0.28800
C3373       C  0.17368738  0.18906906  0.31923228    -0.25100
C3374       C  0.17207415  0.16090190  0.32632761    -0.24300
C3375       C  0.14131681  0.13665168  0.33314469     0.40300
C3376       C  0.11266345  0.14091427  0.33288950    -0.26800
O3377       O  0.14682664  0.21992429  0.31105559    -0.58700
H3378       H  0.19737468  0.20799149  0.31402206     0.15900
O3379       O  0.13930866  0.10924793  0.34040527    -0.60100
H3380       H  0.08934928  0.12238916  0.33844492     0.14300
H3381       H  0.05447166  0.23773083  0.34138938     0.46200
H3382       H  0.13682671  0.21031052  0.30137754     0.41600
H3383       H  0.14630413  0.11743038  0.35053121     0.45000
H3384       H  0.05473874  0.11678246  0.30584592     0.36500
C3385       C  0.84402254  0.36730018  0.56024455    -0.27700
C3386       C  0.86478309  0.36740171  0.57158047     0.01900
C3387       C  0.87340170  0.34149997  0.57210966     0.29900
C3388       C  0.86441939  0.31818547  0.56058360    -0.19500
C3389       C  0.84669211  0.32024295  0.54852415    -0.28900
C3390       C  0.83484101  0.34375452  0.54872395     0.44000
C3391       C  0.88075474  0.39638879  0.58200032     0.05200
O3392       O  0.89181588  0.33979980  0.58361747    -0.57500
H3393       H  0.87373405  0.30027614  0.56052337     0.18100
O3394       O  0.81821055  0.34687754  0.53688940    -0.64200
H3395       H  0.83710316  0.38701664  0.55979706     0.16600
C3396       C  0.91676600  0.41827569  0.58209074     0.28800
C3397       C  0.93274709  0.44042921  0.59386705    -0.25100
C3398       C  0.91317136  0.44115526  0.60558129    -0.24300
C3399       C  0.87693524  0.42238647  0.60462142     0.40300
C3400       C  0.86088359  0.39990335  0.59286581    -0.26800
O3401       O  0.93650026  0.41694019  0.57098701    -0.58700
H3402       H  0.96063410  0.45488105  0.59443202     0.15900
O3403       O  0.85718457  0.42239884  0.61598152    -0.60100
H3404       H  0.83312039  0.38338701  0.59280497     0.14300
H3405       H  0.79342319  0.33036925  0.53861191     0.46200
H3406       H  0.95005879  0.40746391  0.57530977     0.41600
H3407       H  0.84820852  0.43729912  0.61277468     0.45000
H3408       H  0.91464217  0.34574876  0.57962342     0.36500
C3409       C  0.78361112  0.10354169  0.51207413    -0.27700
C3410       C  0.78267820  0.08195186  0.50078691     0.01900
C3411       C  0.79988679  0.09685481  0.48765855     0.29900
C3412       C  0.81464422  0.13230892  0.48548154    -0.19500
C3413       C  0.81290893  0.15332620  0.49632615    -0.28900
C3414       C  0.79868793  0.13904317  0.50991837     0.44000
C3415       C  0.75758506  0.04441411  0.50150563     0.05200
O3416       O  0.79856301  0.07651282  0.47625854    -0.57500
H3417       H  0.82491317  0.14292541  0.47486747     0.18100
O3418       O  0.79610892  0.15891100  0.52060303    -0.64200
H3419       H  0.77028363  0.09246862  0.52218997     0.16600
C3420       C  0.76718420  0.01947199  0.49933547     0.28800
C3421       C  0.74171509  0.98463692  0.49765712    -0.25100
C3422       C  0.70650424  0.97424742  0.49802774    -0.24300
C3423       C  0.69720628  0.99911562  0.50121631     0.40300
C3424       C  0.72256648  0.03367239  0.50289086    -0.26800
O3425       O  0.80124935  0.02898440  0.49833126    -0.58700
H3426       H  0.74952949  0.96600105  0.49540592     0.15900
O3427       O  0.66329419  0.99019491  0.50224934    -0.60100
H3428       H  0.71470259  0.05246947  0.50462271     0.14300
H3429       H  0.81838051  0.16943716  0.52586294     0.46200
H3430       H  0.80915492  0.03083829  0.50851824     0.41600
H3431       H  0.65732450  0.98487600  0.51266168     0.45000
H3432       H  0.82152382  0.07853813  0.47606159     0.36500
C3433       C  0.65245409  0.19524340  0.49881805    -0.27700
C3434       C  0.64744896  0.22098617  0.50473635     0.01900
C3435       C  0.67550908  0.25037721  0.51094460     0.29900
C3436       C  0.70847130  0.25441995  0.51057996    -0.19500
C3437       C  0.71398818  0.22934226  0.50406783    -0.28900
C3438       C  0.68525822  0.19907662  0.49848713     0.44000
C3439       C  0.61271252  0.21673609  0.50445669     0.05200
O3440       O  0.67068941  0.27477926  0.51771400    -0.57500
H3441       H  0.72981713  0.27755985  0.51519588     0.18100
O3442       O  0.68894160  0.17351162  0.49220229    -0.64200
H3443       H  0.63087039  0.17229043  0.49419350     0.16600
C3444       C  0.60591803  0.23871498  0.49619303     0.28800
C3445       C  0.57318974  0.23516993  0.49662867    -0.25100
C3446       C  0.54680634  0.20989543  0.50532536    -0.24300
C3447       C  0.55346258  0.18684961  0.51306152     0.40300
C3448       C  0.58616842  0.19045228  0.51256046    -0.26800
O3449       O  0.63099897  0.26332187  0.48748157    -0.58700
H3450       H  0.56883994  0.25295173  0.49043339     0.15900
O3451       O  0.52890579  0.16183646  0.52178871    -0.60100
H3452       H  0.59111779  0.17319766  0.51885513     0.14300
H3453       H  0.68492643  0.15719056  0.50017402     0.46200
H3454       H  0.63777217  0.28562258  0.49225486     0.41600
H3455       H  0.51689864  0.14113304  0.51549817     0.45000
H3456       H  0.68163952  0.29514257  0.51127738     0.36500
C3457       C  0.83223424  0.40725319  0.49148175    -0.27700
C3458       C  0.86007348  0.43887623  0.49606346     0.01900
C3459       C  0.89047513  0.44041204  0.50079740     0.29900
C3460       C  0.89214735  0.41029889  0.50143118    -0.19500
C3461       C  0.86370653  0.37821759  0.49749103    -0.28900
C3462       C  0.83373837  0.37709146  0.49220017     0.44000
C3463       C  0.85605001  0.46946697  0.49657470     0.05200
O3464       O  0.91757754  0.47067056  0.50594631    -0.57500
H3465       H  0.91527794  0.41196692  0.50576223     0.18100
O3466       O  0.80559726  0.34667748  0.48783785    -0.64200
H3467       H  0.80882208  0.40581353  0.48764155     0.16600
C3468       C  0.87830275  0.49956086  0.48887970     0.28800
C3469       C  0.87240055  0.52717013  0.48889788    -0.25100
C3470       C  0.84443276  0.52545123  0.49653856    -0.24300
C3471       C  0.82262531  0.49543519  0.50450574     0.40300
C3472       C  0.82860469  0.46789069  0.50448365    -0.26800
O3473       O  0.90447097  0.50132665  0.48055202    -0.58700
H3474       H  0.88940018  0.54967812  0.48255599     0.15900
O3475       O  0.79538814  0.49259281  0.51235571    -0.60100
H3476       H  0.81144585  0.44494257  0.51056322     0.14300
H3477       H  0.78923459  0.33933073  0.49611169     0.46200
H3478       H  0.92609896  0.51932068  0.48516076     0.41600
H3479       H  0.77518181  0.48063673  0.50580730     0.45000
H3480       H  0.93676383  0.47681983  0.49903565     0.36500
C3481       C  0.10149438  0.35672388  0.47602618    -0.27700
C3482       C  0.07819859  0.33951281  0.48740758     0.01900
C3483       C  0.09114540  0.33930707  0.50130428     0.29900
C3484       C  0.12667636  0.35798237  0.50387774    -0.19500
C3485       C  0.14979275  0.37682519  0.49271648    -0.28900
C3486       C  0.13712735  0.37519744  0.47860052     0.44000
C3487       C  0.04084900  0.32647273  0.48544891     0.05200
O3488       O  0.06917497  0.32307085  0.51270048    -0.57500
H3489       H  0.13609597  0.35950489  0.51484256     0.18100
O3490       O  0.15902254  0.39440919  0.46762684    -0.64200
H3491       H  0.09192256  0.35732953  0.46531133     0.16600
C3492       C  0.02950531  0.34960608  0.48233636     0.28800
C3493       C  0.99450639  0.33887302  0.48332130    -0.25100
C3494       C  0.97006697  0.30495629  0.48718331    -0.24300
C3495       C  0.98107267  0.28108502  0.48920867     0.40300
C3496       C  0.01632957  0.29203841  0.48851182    -0.26800
O3497       O  0.05274251  0.38356740  0.47961830    -0.58700
H3498       H  0.98662951  0.35762672  0.48162415     0.15900
O3499       O  0.95808651  0.24784377  0.49311547    -0.60100
H3500       H  0.02470506  0.27397190  0.49095340     0.14300
H3501       H  0.16813040  0.38014374  0.46363696     0.46200
H3502       H  0.05307247  0.38577422  0.46889424     0.41600
H3503       H  0.95114372  0.23469950  0.48385481     0.45000
H3504       H  0.06411288  0.34034025  0.51686887     0.36500
C3505       C  0.88397700  0.22937015  0.42489844    -0.27700
C3506       C  0.85776933  0.21736600  0.41447837     0.01900
C3507       C  0.82538341  0.21237291  0.41832798     0.29900
C3508       C  0.81918485  0.21849336  0.43260076    -0.19500
C3509       C  0.84501700  0.22956404  0.44329730    -0.28900
C3510       C  0.87783541  0.23524540  0.43923907     0.44000
C3511       C  0.86350718  0.20719948  0.39997900     0.05200
O3512       O  0.79938879  0.20077159  0.40826635    -0.57500
H3513       H  0.79384864  0.21408632  0.43530118     0.18100
O3514       O  0.90395738  0.24585452  0.44918837    -0.64200
H3515       H  0.90894037  0.23298884  0.42201996     0.16600
C3516       C  0.88705585  0.23157351  0.39016866     0.28800
C3517       C  0.89273619  0.22082151  0.37667758    -0.25100
C3518       C  0.87540436  0.18571526  0.37285413    -0.24300
C3519       C  0.85185987  0.16139640  0.38283872     0.40300
C3520       C  0.84592389  0.17230848  0.39619527    -0.26800
O3521       O  0.90391587  0.26595972  0.39353717    -0.58700
H3522       H  0.91080982  0.24005676  0.36921678     0.15900
O3523       O  0.83484830  0.12683765  0.37981097    -0.60100
H3524       H  0.82799717  0.15334598  0.40378992     0.14300
H3525       H  0.90178866  0.22440384  0.45309024     0.46200
H3526       H  0.92682223  0.27136451  0.39718805     0.41600
H3527       H  0.84974134  0.11852104  0.38378008     0.45000
H3528       H  0.80296865  0.22169202  0.40322069     0.36500
loop_ 
_geom_bond_atom_site_label_1 
_geom_bond_atom_site_label_2 
_geom_bond_distance 
_geom_bond_site_symmetry_2 
_ccdc_geom_bond_type 
O1           Ni7   1.929       .  S
O1           C22   1.271       .  A
O2          Ni25   1.914       .  S
O2           C11   1.270       .  A
O3           Ni7   1.899       .  S
O3          Ni25   1.907       .  S
O3          Ni19   1.906       .  S
O3           H26   0.966       .  S
C4           O21   1.276       .  A
C4           O13   1.278       .  A
C4         C3509   1.486       .  S
O5          Ni24   1.923       .  S
O5           C11   1.270       .  A
O6          Ni24   1.903       .  S
O6            C8   1.268       .  A
Ni7          O10   1.916       .  S
Ni7          O12   1.907       .  S
C8           O18   1.273       .  A
C8         C3413   1.472       .  S
O9          Ni25   1.924       .  S
O9           C15   1.279       .  A
O10          C15   1.277       .  A
C11        C3437   1.488       .  S
O12          C14   1.268       .  A
O13         Ni24   1.922       .  S
C14          O20   1.269       .  A
C14        C3461   1.487       .  S
C15        C3389   1.467       .  S
H16          O17   0.966       .  S
O17         Ni25   1.915       .  S
O17         Ni19   1.900       .  S
O17         Ni24   1.896       .  S
O18         Ni19   1.937       .  S
Ni19         O23   1.916       .  S
Ni19         O21   1.914       .  S
O20         Ni25   1.920       .  S
C22          O23   1.269       .  A
C22        C3494   1.483       .  S
O27         Ni33   1.929       .  S
O27          C48   1.270       .  A
O28         Ni51   1.917       .  S
O28          C37   1.272       .  A
O29         Ni33   1.915       .  S
O29         Ni51   1.910       .  S
O29         Ni45   1.894       .  S
O29          H52   0.967       .  S
C30          O47   1.263       .  A
C30          O39   1.269       .  A
C30        C3518   1.483       .  S
O31         Ni50   1.908       .  S
O31          C37   1.267       .  A
O32         Ni50   1.896       .  S
O32          C34   1.270       .  A
Ni33         O36   1.912       .  S
Ni33         O38   1.912       .  S
C34          O44   1.281       .  A
C34        C3293   1.476       .  S
O35         Ni51   1.930       .  S
O35          C41   1.279       .  A
O36          C41   1.273       .  A
C37        C3350   1.490       .  S
O38          C40   1.269       .  A
O39         Ni50   1.933       .  S
C40          O46   1.268       .  A
C40        C3365   1.482   1_655  S
C41        C3278   1.468       .  S
H42          O43   0.966       .  S
O43         Ni51   1.939       .  S
O43         Ni45   1.913       .  S
O43         Ni50   1.914       .  S
O44         Ni45   1.960       .  S
Ni45         O49   1.907       .  S
Ni45         O47   1.897       .  S
O46         Ni51   1.913       .  S
C48          O49   1.265       .  A
C48        C3326   1.483       .  S
O53         Ni59   1.929       .  S
O53          C74   1.271       .  A
O54         Ni77   1.919       .  S
O54          C63   1.271       .  A
O55         Ni59   1.904       .  S
O55         Ni77   1.910       .  S
O55         Ni71   1.907       .  S
O55          H78   0.966       .  S
C56          O73   1.273       .  A
C56          O65   1.278       .  A
C56        C3230   1.483       .  S
O57         Ni76   1.927       .  S
O57          C63   1.271       .  A
O58         Ni76   1.898       .  S
O58          C60   1.268       .  A
Ni59         O62   1.916       .  S
Ni59         O64   1.911       .  S
C60          O70   1.277       .  A
C60        C3182   1.474       .  S
O61         Ni77   1.928       .  S
O61          C67   1.280       .  A
O62          C67   1.277       .  A
C63        C3245   1.493   1_655  S
O64          C66   1.268       .  A
O65         Ni76   1.926       .  S
C66          O72   1.268       .  A
C66        C3341   1.486       .  S
C67        C3149   1.471       .  S
H68          O69   0.966       .  S
O69         Ni77   1.916       .  S
O69         Ni71   1.908       .  S
O69         Ni76   1.899       .  S
O70         Ni71   1.943       .  S
Ni71         O75   1.923       .  S
Ni71         O73   1.906       .  S
O72         Ni77   1.910       .  S
C74          O75   1.270       .  A
C74        C3206   1.488       .  S
O79         Ni85   1.927       .  S
O79         C100   1.272       .  A
O80        Ni103   1.911       .  S
O80          C89   1.268       .  A
O81         Ni85   1.904       .  S
O81        Ni103   1.911       .  S
O81         Ni97   1.914       .  S
O81         H104   0.966       .  S
C82          O99   1.278       .  A
C82          O91   1.275       .  A
C82        C3221   1.484       .  S
O83        Ni102   1.923       .  S
O83          C89   1.269       .  A
O84        Ni102   1.899       .  S
O84          C86   1.268       .  A
Ni85         O88   1.916       .  S
Ni85         O90   1.910       .  S
C86          O96   1.274       .  A
C86        C3077   1.473       .  S
O87        Ni103   1.916       .  S
O87          C93   1.275       .  A
O88          C93   1.274       .  A
C89        C3470   1.487       .  S
O90          C92   1.270       .  A
O91        Ni102   1.912       .  S
C92          O98   1.269       .  A
C92        C3101   1.475       .  S
C93        C3062   1.465       .  S
H94          O95   0.966       .  S
O95        Ni103   1.910       .  S
O95         Ni97   1.901       .  S
O95        Ni102   1.898       .  S
O96         Ni97   1.935       .  S
Ni97        O101   1.917       .  S
Ni97         O99   1.922       .  S
O98        Ni103   1.914       .  S
C100        O101   1.271       .  A
C100       C3134   1.483       .  S
O105       Ni111   1.929       .  S
O105        C126   1.275       .  A
O106       Ni129   1.906       .  S
O106        C115   1.268       .  A
O107       Ni111   1.901       .  S
O107       Ni129   1.901       .  S
O107       Ni123   1.910       .  S
O107        H130   0.967       .  S
C108        O125   1.274       .  A
C108        O117   1.277       .  A
C108       C3038   1.488       .  S
O109       Ni128   1.930       .  S
O109        C115   1.271       .  A
O110       Ni128   1.896       .  S
O110        C112   1.266       .  A
Ni111       O114   1.913       .  S
Ni111       O116   1.933       .  S
C112        O122   1.278       .  A
C112       C2990   1.476       .  S
O113       Ni129   1.932       .  S
O113        C119   1.279       .  A
O114        C119   1.275       .  A
C115       C3374   1.468       .  S
O116        C118   1.274       .  A
O117       Ni128   1.935       .  S
C118        O124   1.268       .  A
C118       C3254   1.495       .  S
C119       C2957   1.473       .  S
H120        O121   0.966       .  S
O121       Ni129   1.910       .  S
O121       Ni123   1.911       .  S
O121       Ni128   1.899       .  S
O122       Ni123   1.953       .  S
Ni123       O127   1.922       .  S
Ni123       O125   1.910       .  S
O124       Ni129   1.910       .  S
C126        O127   1.273       .  A
C126       C3014   1.489       .  S
O131       Ni137   1.929       .  S
O131        C152   1.272       .  A
O132       Ni155   1.915       .  S
O132        C141   1.271       .  A
O133       Ni137   1.892       .  S
O133       Ni155   1.903       .  S
O133       Ni149   1.910       .  S
O133        H156   0.966       .  S
C134        O151   1.276       .  A
C134        O143   1.280       .  A
C134       C3029   1.491       .  S
O135       Ni154   1.925       .  S
O135        C141   1.271       .  A
O136       Ni154   1.893       .  S
O136        C138   1.266       .  A
Ni137       O140   1.915       .  S
Ni137       O142   1.914       .  S
C138        O148   1.277       .  A
C138       C2918   1.475       .  S
O139       Ni155   1.936       .  S
O139        C145   1.281       .  A
O140        C145   1.278       .  A
C141       C3110   1.486       .  S
O142        C144   1.269       .  A
O143       Ni154   1.931       .  S
C144        O150   1.271       .  A
C144       C3446   1.488       .  S
C145       C2894   1.480       .  S
H146        O147   0.966       .  S
O147       Ni155   1.911       .  S
O147       Ni149   1.902       .  S
O147       Ni154   1.888       .  S
O148       Ni149   1.951       .  S
Ni149       O153   1.920       .  S
Ni149       O151   1.912       .  S
O150       Ni155   1.920       .  S
C152        O153   1.272       .  A
C152       C2933   1.489       .  S
O157       Ni163   1.924       .  S
O157        C178   1.271       .  A
O158       Ni181   1.908       .  S
O158        C167   1.272       .  A
O159       Ni163   1.892       .  S
O159       Ni181   1.892       .  S
O159       Ni175   1.894       .  S
O159        H182   0.966       .  S
C160        O177   1.267       .  A
C160        O169   1.277       .  A
C160       C2870   1.485       .  S
O161       Ni180   1.933       .  S
O161        C167   1.277   1_554  A
O162       Ni180   1.897   1_556  S
O162        C164   1.269       .  A
Ni163       O166   1.907       .  S
Ni163       O168   1.920       .  S
C164        O174   1.283       .  A
C164       C2774   1.482       .  S
O165       Ni181   1.944       .  S
O165        C171   1.284       .  A
O166        C171   1.276       .  A
C167       C2822   1.493       .  S
O168        C170   1.270       .  A
O169       Ni180   1.947       .  S
C170        O176   1.265       .  A
C170       C2789   1.479       .  S
C171       C2741   1.477       .  S
H172        O173   0.966       .  S
O173       Ni181   1.924   1_554  S
O173       Ni175   1.905   1_554  S
O173       Ni180   1.894       .  S
O174       Ni175   1.964       .  S
Ni175       O179   1.915       .  S
Ni175       O177   1.893   1_556  S
O176       Ni181   1.906       .  S
C178        O179   1.271       .  A
C178       C2837   1.486       .  S
O183       Ni189   1.936       .  S
O183        C204   1.274       .  A
O184       Ni207   1.914       .  S
O184        C193   1.268       .  A
O185       Ni189   1.905       .  S
O185       Ni207   1.909       .  S
O185       Ni201   1.904       .  S
O185        H208   0.967       .  S
C186        O203   1.274       .  A
C186        O195   1.276       .  A
C186       C2861   1.485       .  S
O187       Ni206   1.914       .  S
O187        C193   1.266       .  A
O188       Ni206   1.897       .  S
O188        C190   1.268       .  A
Ni189       O192   1.925       .  S
Ni189       O194   1.921       .  S
C190        O200   1.275       .  A
C190       C2654   1.470       .  S
O191       Ni207   1.925       .  S
O191        C197   1.281       .  A
O192        C197   1.279       .  A
C193       C2669   1.485       .  S
O194        C196   1.269       .  A
O195       Ni206   1.919       .  S
C196        O202   1.263       .  A
C196       C2693   1.476       .  S
C197       C3269   1.474       .  S
H198        O199   0.966       .  S
O199       Ni207   1.923       .  S
O199       Ni201   1.904       .  S
O199       Ni206   1.900       .  S
O200       Ni201   1.940       .  S
Ni201       O205   1.912       .  S
Ni201       O203   1.916       .  S
O202       Ni207   1.904       .  S
C204        O205   1.270       .  A
C204       C2717   1.488       .  S
O209       Ni215   1.937       .  S
O209        C230   1.277       .  A
O210       Ni233   1.918       .  S
O210        C219   1.269       .  A
O211       Ni215   1.912       .  S
O211       Ni233   1.918       .  S
O211       Ni227   1.924       .  S
O211        H234   0.966       .  S
C212        O229   1.281       .  A
C212        O221   1.275       .  A
C212       C2630   1.481       .  S
O213       Ni232   1.914   1_556  S
O213        C219   1.267       .  A
O214       Ni232   1.898   1_556  S
O214        C216   1.268       .  A
Ni215       O218   1.928       .  S
Ni215       O220   1.922       .  S
C216        O226   1.276       .  A
C216       C2558   1.474       .  S
O217       Ni233   1.914       .  S
O217        C223   1.273       .  A
O218        C223   1.274       .  A
C219       C2573   1.484       .  S
O220        C222   1.274       .  A
O221       Ni232   1.908       .  S
C222        O228   1.271       .  A
C222       C2813   1.486       .  S
C223       C2525   1.466       .  S
H224        O225   0.966       .  S
O225       Ni233   1.909       .  S
O225       Ni227   1.895       .  S
O225       Ni232   1.891   1_556  S
O226       Ni227   1.945       .  S
Ni227       O231   1.918       .  S
Ni227       O229   1.933   1_556  S
O228       Ni233   1.926       .  S
C230        O231   1.273       .  A
C230       C2606   1.491       .  S
O235       Ni241   1.928       .  S
O235        C256   1.274       .  A
O236       Ni259   1.904       .  S
O236        C245   1.268       .  A
O237       Ni241   1.890       .  S
O237       Ni259   1.894       .  S
O237       Ni253   1.907       .  S
O237        H260   0.966       .  S
C238        O255   1.275       .  A
C238        O247   1.280       .  A
C238       C2621   1.481       .  S
O239       Ni258   1.928       .  S
O239        C245   1.272       .  A
O240       Ni258   1.894       .  S
O240        C242   1.266       .  A
Ni241       O244   1.916       .  S
Ni241       O246   1.920       .  S
C242        O252   1.277       .  A
C242       C2453   1.474       .  S
O243       Ni259   1.937       .  S
O243        C249   1.282       .  A
O244        C249   1.279       .  A
C245       C2702   1.473   1_565  S
O246        C248   1.270       .  A
O247       Ni258   1.933       .  S
C248        O254   1.267       .  A
C248       C2486   1.486       .  S
C249       C3158   1.476       .  S
H250        O251   0.966       .  S
O251       Ni259   1.907       .  S
O251       Ni253   1.901       .  S
O251       Ni258   1.888       .  S
O252       Ni253   1.951       .  S
Ni253       O257   1.917       .  S
Ni253       O255   1.906       .  S
O254       Ni259   1.916       .  S
C256        O257   1.272       .  A
C256       C2501   1.482       .  S
O261       Ni267   1.930       .  S
O261        C282   1.272       .  A
O262       Ni285   1.910       .  S
O262        C271   1.269       .  A
O263       Ni267   1.895       .  S
O263       Ni285   1.897       .  S
O263       Ni279   1.909       .  S
O263        H286   0.966       .  S
C264        O281   1.275       .  A
C264        O273   1.278       .  A
C264       C2429   1.490       .  S
O265       Ni284   1.921   1_556  S
O265        C271   1.271       .  A
O266       Ni284   1.893   1_556  S
O266        C268   1.266       .  A
Ni267       O270   1.915       .  S
Ni267       O272   1.917       .  S
C268        O278   1.277       .  A
C268       C2390   1.473       .  S
O269       Ni285   1.938       .  S
O269        C275   1.283       .  A
O270        C275   1.279       .  A
C271       C2798   1.478       .  S
O272        C274   1.269       .  A
O273       Ni284   1.928       .  S
C274        O280   1.268       .  A
C274       C2582   1.488       .  S
C275       C2366   1.481       .  S
H276        O277   0.966       .  S
O277       Ni285   1.918   1_554  S
O277       Ni279   1.902   1_554  S
O277       Ni284   1.893       .  S
O278       Ni279   1.948       .  S
Ni279       O283   1.913       .  S
Ni279       O281   1.912   1_556  S
O280       Ni285   1.913       .  S
C282        O283   1.270       .  A
C282       C2405   1.478       .  S
O287       Ni293   1.928       .  S
O287        C308   1.273       .  A
O288       Ni311   1.914       .  S
O288        C297   1.269       .  A
O289       Ni293   1.907       .  S
O289       Ni311   1.911       .  S
O289       Ni305   1.913       .  S
O289        H312   0.966       .  S
C290        O307   1.278       .  A
C290        O299   1.277       .  A
C290       C2438   1.488       .  S
O291       Ni310   1.928       .  S
O291        C297   1.272       .  A
O292       Ni310   1.900       .  S
O292        C294   1.269       .  A
Ni293       O296   1.919       .  S
Ni293       O298   1.915   1_565  S
C294        O304   1.278       .  A
C294       C2309   1.480       .  S
O295       Ni311   1.921       .  S
O295        C301   1.277       .  A
O296        C301   1.274       .  A
C297       C2477   1.487       .  S
O298        C300   1.270       .  A
O299       Ni310   1.921       .  S
C300        O306   1.269   1_545  A
C300       C2678   1.485       .  S
C301       C2966   1.466       .  S
H302        O303   0.967       .  S
O303       Ni311   1.913       .  S
O303       Ni305   1.899       .  S
O303       Ni310   1.893       .  S
O304       Ni305   1.948       .  S
Ni305       O309   1.914       .  S
Ni305       O307   1.923       .  S
O306       Ni311   1.918       .  S
C308        O309   1.271       .  A
C308       C2333   1.481       .  S
O313       Ni319   1.920       .  S
O313        C334   1.270       .  A
O314       Ni337   1.918   1_545  S
O314        C323   1.269       .  A
O315       Ni319   1.898       .  S
O315       Ni337   1.907       .  S
O315       Ni331   1.913       .  S
O315        H338   0.966       .  S
C316        O333   1.279       .  A
C316        O325   1.276       .  A
C316       C2222   1.468       .  S
O317       Ni336   1.928       .  S
O317        C323   1.273   1_565  A
O318       Ni336   1.926       .  S
O318        C320   1.272       .  A
Ni319       O322   1.930       .  S
Ni319       O324   1.888       .  S
C320        O330   1.268       .  A
C320       C2261   1.490       .  S
O321       Ni337   1.895       .  S
O321        C327   1.269       .  A
O322        C327   1.276       .  A
C323       C3302   1.489       .  S
O324        C326   1.265       .  A
O325       Ni336   1.909       .  S
C326        O332   1.280   1_565  A
C326       C3005   1.482   1_565  S
C327       C2294   1.462       .  S
H328        O329   0.966       .  S
O329       Ni337   1.907       .  S
O329       Ni331   1.909       .  S
O329       Ni336   1.907       .  S
O330       Ni331   1.912       .  S
Ni331       O335   1.917       .  S
Ni331       O333   1.927       .  S
O332       Ni337   1.963   1_545  S
C334        O335   1.270       .  A
C334       C2246   1.484       .  S
O339       Ni345   1.919       .  S
O339        C360   1.269       .  A
O340       Ni363   1.920       .  S
O340        C349   1.269       .  A
O341       Ni345   1.910       .  S
O341       Ni363   1.919       .  S
O341       Ni357   1.924       .  S
O341        H364   0.966       .  S
C342        O359   1.281       .  A
C342        O351   1.276       .  A
C342       C2150   1.475       .  S
O343       Ni362   1.930       .  S
O343        C349   1.272       .  A
O344       Ni362   1.918       .  S
O344        C346   1.270       .  A
Ni345       O348   1.923       .  S
Ni345       O350   1.884       .  S
C346        O356   1.268       .  A
C346       C2165   1.490       .  S
O347       Ni363   1.901       .  S
O347        C353   1.267       .  A
O348        C353   1.272       .  A
C349       C2462   1.493       .  S
O350        C352   1.266       .  A
O351       Ni362   1.911       .  S
C352        O358   1.280       .  A
C352       C2342   1.474       .  S
C353       C2285   1.469       .  S
H354        O355   0.966       .  S
O355       Ni363   1.901       .  S
O355       Ni357   1.908       .  S
O355       Ni362   1.907       .  S
O356       Ni357   1.912       .  S
Ni357       O361   1.913       .  S
Ni357       O359   1.935       .  S
O358       Ni363   1.958       .  S
C360        O361   1.270       .  A
C360       C2189   1.488       .  S
O365       Ni371   1.923       .  S
O365        C386   1.270       .  A
O366       Ni389   1.912       .  S
O366        C375   1.270       .  A
O367       Ni371   1.900       .  S
O367       Ni389   1.900       .  S
O367       Ni383   1.917       .  S
O367        H390   0.966       .  S
C368        O385   1.279       .  A
C368        O377   1.275       .  A
C368       C2069   1.472       .  S
O369       Ni388   1.932       .  S
O369        C375   1.274       .  A
O370       Ni388   1.915       .  S
O370        C372   1.271       .  A
Ni371       O374   1.917       .  S
Ni371       O376   1.906       .  S
C372        O382   1.269       .  A
C372       C2237   1.483       .  S
O373       Ni389   1.923       .  S
O373        C379   1.277       .  A
O374        C379   1.275       .  A
C375       C3173   1.483       .  S
O376        C378   1.269       .  A
O377       Ni388   1.923       .  S
C378        O384   1.273       .  A
C378       C3317   1.470       .  S
C379       C2102   1.485       .  S
H380        O381   0.966       .  S
O381       Ni389   1.913       .  S
O381       Ni383   1.914       .  S
O381       Ni388   1.907       .  S
O382       Ni383   1.919       .  S
Ni383       O387   1.917       .  S
Ni383       O385   1.928       .  S
O384       Ni389   1.934       .  S
C386        O387   1.271       .  A
C386       C2126   1.490       .  S
O391       Ni397   1.927       .  S
O391        C412   1.272       .  A
O392       Ni415   1.916   1_455  S
O392        C401   1.269       .  A
O393       Ni397   1.898       .  S
O393       Ni415   1.905       .  S
O393       Ni409   1.918       .  S
O393        H416   0.966       .  S
C394        O411   1.283       .  A
C394        O403   1.278       .  A
C394       C2030   1.471       .  S
O395       Ni414   1.937       .  S
O395        C401   1.272   1_655  A
O396       Ni414   1.912       .  S
O396        C398   1.270       .  A
Ni397       O400   1.930       .  S
Ni397       O402   1.899       .  S
C398        O408   1.270       .  A
C398       C2054   1.485       .  S
O399       Ni415   1.903       .  S
O399        C405   1.273       .  A
O400        C405   1.278       .  A
C401       C2318   1.483       .  S
O402        C404   1.268       .  A
O403       Ni414   1.915       .  S
C404        O410   1.276       .  A
C404       C2726   1.472   1_655  S
C405       C2093   1.487       .  S
H406        O407   0.966       .  S
O407       Ni415   1.902       .  S
O407       Ni409   1.905       .  S
O407       Ni414   1.897       .  S
O408       Ni409   1.920       .  S
Ni409       O413   1.919       .  S
Ni409       O411   1.933       .  S
O410       Ni415   1.944       .  S
C412        O413   1.273       .  A
C412       C2174   1.485       .  S
O417       Ni423   1.927       .  S
O417        C438   1.271       .  A
O418       Ni441   1.912       .  S
O418        C427   1.269       .  A
O419       Ni423   1.900       .  S
O419       Ni441   1.900       .  S
O419       Ni435   1.910       .  S
O419        H442   0.966       .  S
C420        O437   1.275       .  A
C420        O429   1.273       .  A
C420       C1973   1.467       .  S
O421       Ni440   1.927       .  S
O421        C427   1.272       .  A
O422       Ni440   1.914       .  S
O422        C424   1.272       .  A
Ni423       O426   1.916       .  S
Ni423       O428   1.907       .  S
C424        O434   1.272       .  A
C424       C2117   1.483       .  S
O425       Ni441   1.927       .  S
O425        C431   1.279       .  A
O426        C431   1.276       .  A
C427       C2981   1.478       .  S
O428        C430   1.268       .  A
O429       Ni440   1.916       .  S
C430        O436   1.273       .  A
C430       C3197   1.473       .  S
C431       C2006   1.491       .  S
H432        O433   0.966       .  S
O433       Ni441   1.917       .  S
O433       Ni435   1.914       .  S
O433       Ni440   1.908       .  S
O434       Ni435   1.923       .  S
Ni435       O439   1.917       .  S
Ni435       O437   1.920       .  S
O436       Ni441   1.935       .  S
C438        O439   1.271       .  A
C438       C2270   1.491       .  S
O443       Ni449   1.928       .  S
O443        C464   1.270       .  A
O444       Ni467   1.909       .  S
O444        C453   1.268       .  A
O445       Ni449   1.907       .  S
O445       Ni467   1.907       .  S
O445       Ni461   1.913       .  S
O445        H468   0.966       .  S
C446        O463   1.276       .  A
C446        O455   1.275       .  A
C446       C1949   1.466       .  S
O447       Ni466   1.934       .  S
O447        C453   1.274       .  A
O448       Ni466   1.916       .  S
O448        C450   1.271       .  A
Ni449       O452   1.921       .  S
Ni449       O454   1.903       .  S
C450        O460   1.271       .  A
C450       C2198   1.488       .  S
O451       Ni467   1.919       .  S
O451        C457   1.276       .  A
O452        C457   1.276       .  A
C453       C2645   1.484       .  S
O454        C456   1.267       .  A
O455       Ni466   1.917       .  S
C456        O462   1.271       .  A
C456       C2510   1.467       .  S
C457       C1997   1.485       .  S
H458        O459   0.966       .  S
O459       Ni467   1.910       .  S
O459       Ni461   1.912       .  S
O459       Ni466   1.907       .  S
O460       Ni461   1.919       .  S
Ni461       O465   1.915       .  S
Ni461       O463   1.919       .  S
O462       Ni467   1.929       .  S
C464        O465   1.269       .  A
C464       C2045   1.486       .  S
O469       Ni475   1.926       .  S
O469        C490   1.271       .  A
O470       Ni493   1.918       .  S
O470        C479   1.271       .  A
O471       Ni475   1.894       .  S
O471       Ni493   1.898       .  S
O471       Ni487   1.907       .  S
O471        H494   0.966       .  S
C472        O489   1.277       .  A
C472        O481   1.277       .  A
C472       C1982   1.466       .  S
O473       Ni492   1.933       .  S
O473        C479   1.275       .  A
O474       Ni492   1.912       .  S
O474        C476   1.270       .  A
Ni475       O478   1.914       .  S
Ni475       O480   1.903       .  S
C476        O486   1.271       .  A
C476       C1901   1.487       .  S
O477       Ni493   1.918       .  S
O477        C483   1.276       .  A
O478        C483   1.277       .  A
C479       C2909   1.493       .  S
O480        C482   1.268       .  A
O481       Ni492   1.919       .  S
C482        O488   1.275       .  A
C482       C3485   1.472       .  S
C483       C1925   1.484       .  S
H484        O485   0.966       .  S
O485       Ni493   1.907       .  S
O485       Ni487   1.907       .  S
O485       Ni492   1.896       .  S
O486       Ni487   1.924       .  S
Ni487       O491   1.912       .  S
Ni487       O489   1.918       .  S
O488       Ni493   1.939       .  S
C490        O491   1.270       .  A
C490       C1877   1.484       .  S
O495       Ni501   1.928       .  S
O495        C516   1.271       .  A
O496       Ni519   1.909       .  S
O496        C505   1.270       .  A
O497       Ni501   1.894       .  S
O497       Ni519   1.895       .  S
O497       Ni513   1.905       .  S
O497        H520   0.966       .  S
C498        O515   1.275       .  A
C498        O507   1.273       .  A
C498       C1766   1.466       .  S
O499       Ni518   1.933       .  S
O499        C505   1.274       .  A
O500       Ni518   1.915       .  S
O500        C502   1.273       .  A
Ni501       O504   1.912       .  S
Ni501       O506   1.908       .  S
C502        O512   1.271       .  A
C502       C1814   1.476       .  S
O503       Ni519   1.924       .  S
O503        C509   1.278       .  A
O504        C509   1.276       .  A
C505       C1862   1.482       .  S
O506        C508   1.269       .  A
O507       Ni518   1.921       .  S
C508        O514   1.275       .  A
C508       C1781   1.476       .  S
C509       C1934   1.481       .  S
H510        O511   0.966       .  S
O511       Ni519   1.917       .  S
O511       Ni513   1.916       .  S
O511       Ni518   1.909       .  S
O512       Ni513   1.924       .  S
Ni513       O517   1.914       .  S
Ni513       O515   1.918       .  S
O514       Ni519   1.939       .  S
C516        O517   1.271       .  A
C516       C1838   1.491       .  S
O521       Ni527   1.928       .  S
O521        C542   1.271       .  A
O522       Ni545   1.909       .  S
O522        C531   1.268       .  A
O523       Ni527   1.894       .  S
O523       Ni545   1.900       .  S
O523       Ni539   1.915       .  S
O523        H546   0.966       .  S
C524        O541   1.285       .  A
C524        O533   1.278       .  A
C524       C2078   1.474       .  S
O525       Ni544   1.933       .  S
O525        C531   1.273       .  A
O526       Ni544   1.914       .  S
O526        C528   1.270       .  A
Ni527       O530   1.927       .  S
Ni527       O532   1.898       .  S
C528        O538   1.269       .  A
C528       C1886   1.484       .  S
O529       Ni545   1.909       .  S
O529        C535   1.274       .  A
O530        C535   1.280       .  A
C531       C3086   1.476       .  S
O532        C534   1.267       .  A
O533       Ni544   1.914       .  S
C534        O540   1.276       .  A
C534       C2942   1.474       .  S
C535       C1733   1.485       .  S
H536        O537   0.966       .  S
O537       Ni545   1.905       .  S
O537       Ni539   1.901       .  S
O537       Ni544   1.897       .  S
O538       Ni539   1.918       .  S
Ni539       O543   1.916       .  S
Ni539       O541   1.939       .  S
O540       Ni545   1.946       .  S
C542        O543   1.272       .  A
C542       C1718   1.477       .  S
O547       Ni553   1.924       .  S
O547        C568   1.271       .  A
O548       Ni571   1.907       .  S
O548        C557   1.267       .  A
O549       Ni553   1.893       .  S
O549       Ni571   1.900       .  S
O549       Ni565   1.909       .  S
O549        H572   0.966       .  S
C550        O567   1.279       .  A
C550        O559   1.277       .  A
C550       C1622   1.471       .  S
O551       Ni570   1.931       .  S
O551        C557   1.273       .  A
O552       Ni570   1.913       .  S
O552        C554   1.269       .  A
Ni553       O556   1.924       .  S
Ni553       O558   1.897       .  S
C554        O564   1.269       .  A
C554       C1685   1.487       .  S
O555       Ni571   1.910       .  S
O555        C561   1.274       .  A
O556        C561   1.278       .  A
C557       C1661   1.482       .  S
O558        C560   1.267       .  A
O559       Ni570   1.915       .  S
C560        O566   1.275       .  A
C560       C1637   1.476       .  S
C561       C1742   1.480       .  S
H562        O563   0.966       .  S
O563       Ni571   1.908       .  S
O563       Ni565   1.906       .  S
O563       Ni570   1.901       .  S
O564       Ni565   1.916       .  S
Ni565       O569   1.911       .  S
Ni565       O567   1.925       .  S
O566       Ni571   1.945       .  S
C568        O569   1.269       .  A
C568       C1805   1.484   1_565  S
O573       Ni579   1.925       .  S
O573        C594   1.269       .  A
O574       Ni597   1.915       .  S
O574        C583   1.269       .  A
O575       Ni579   1.907       .  S
O575       Ni597   1.914       .  S
O575       Ni591   1.917       .  S
O575        H598   0.966       .  S
C576        O593   1.279       .  A
C576        O585   1.278       .  A
C576       C2213   1.465       .  S
O577       Ni596   1.934       .  S
O577        C583   1.273       .  A
O578       Ni596   1.920       .  S
O578        C580   1.269       .  A
Ni579       O582   1.925       .  S
Ni579       O584   1.895       .  S
C580        O590   1.266       .  A
C580       C1709   1.480       .  S
O581       Ni597   1.900       .  S
O581        C587   1.270       .  A
O582        C587   1.276       .  A
C583       C3422   1.488       .  S
O584        C586   1.267       .  A
O585       Ni596   1.919       .  S
C586        O592   1.276       .  A
C586       C3125   1.472       .  S
C587       C1589   1.481       .  S
H588        O589   0.966       .  S
O589       Ni597   1.898       .  S
O589       Ni591   1.905       .  S
O589       Ni596   1.906       .  S
O590       Ni591   1.908       .  S
Ni591       O595   1.914       .  S
Ni591       O593   1.920       .  S
O592       Ni597   1.944       .  S
C594        O595   1.268       .  A
C594       C1910   1.490       .  S
O599       Ni605   1.918       .  S
O599        C620   1.269       .  A
O600       Ni623   1.915       .  S
O600        C609   1.270       .  A
O601       Ni605   1.894       .  S
O601       Ni623   1.896       .  S
O601       Ni617   1.916       .  S
O601        H624   0.966       .  S
C602        O619   1.279       .  A
C602        O611   1.276       .  A
C602       C1517   1.466       .  S
O603       Ni622   1.928       .  S
O603        C609   1.273       .  A
O604       Ni622   1.921   1_545  S
O604        C606   1.272       .  A
Ni605       O608   1.917       .  S
Ni605       O610   1.902       .  S
C606        O616   1.270   1_545  A
C606       C1829   1.487       .  S
O607       Ni623   1.920       .  S
O607        C613   1.277       .  A
O608        C613   1.277       .  A
C609       C1565   1.476       .  S
O610        C612   1.267       .  A
O611       Ni622   1.913       .  S
C612        O618   1.274       .  A
C612       C1541   1.470       .  S
C613       C1598   1.482       .  S
H614        O615   0.966       .  S
O615       Ni623   1.910       .  S
O615       Ni617   1.907       .  S
O615       Ni622   1.900       .  S
O616       Ni617   1.920       .  S
Ni617       O621   1.919       .  S
Ni617       O619   1.924       .  S
O618       Ni623   1.938       .  S
C620        O621   1.271       .  A
C620       C1694   1.488       .  S
O625       Ni631   1.922       .  S
O625        C646   1.272       .  A
O626       Ni649   1.922       .  S
O626        C635   1.273       .  A
O627       Ni631   1.889       .  S
O627       Ni649   1.904       .  S
O627       Ni643   1.913   1_556  S
O627        H650   0.966       .  S
C628        O645   1.283       .  A
C628        O637   1.276       .  A
C628       C2021   1.481       .  S
O629       Ni648   1.924       .  S
O629        C635   1.271   1_554  A
O630       Ni648   1.923       .  S
O630        C632   1.270       .  A
Ni631       O634   1.936       .  S
Ni631       O636   1.888       .  S
C632        O642   1.266       .  A
C632       C1478   1.486       .  S
O633       Ni649   1.902       .  S
O633        C639   1.272       .  A
O634        C639   1.278       .  A
C635       C2381   1.492       .  S
O636        C638   1.265       .  A
O637       Ni648   1.908       .  S
C638        O644   1.281       .  A
C638       C2597   1.484       .  S
C639       C1493   1.470       .  S
H640        O641   0.966       .  S
O641       Ni649   1.906   1_554  S
O641       Ni643   1.902       .  S
O641       Ni648   1.898       .  S
O642       Ni643   1.908       .  S
Ni643       O647   1.911       .  S
Ni643       O645   1.944       .  S
O644       Ni649   1.966       .  S
C646        O647   1.270   1_556  A
C646       C1454   1.485       .  S
O651       Ni657   1.913       .  S
O651        C672   1.269       .  A
O652       Ni675   1.906       .  S
O652        C661   1.266       .  A
O653       Ni657   1.910       .  S
O653       Ni675   1.909       .  S
O653       Ni669   1.925       .  S
O653        H676   0.966       .  S
C654        O671   1.276       .  A
C654        O663   1.273       .  A
C654       C1613   1.473       .  S
O655       Ni674   1.931       .  S
O655        C661   1.272       .  A
O656       Ni674   1.921   1_455  S
O656        C658   1.272       .  A
Ni657       O660   1.931       .  S
Ni657       O662   1.891       .  S
C658        O668   1.268   1_455  A
C658       C1406   1.491       .  S
O659       Ni675   1.903       .  S
O659        C665   1.266       .  A
O660        C665   1.271       .  A
C661       C1421   1.477       .  S
O662        C664   1.267       .  A
O663       Ni674   1.914       .  S
C664        O670   1.282       .  A
C664       C1349   1.479       .  S
C665       C1502   1.476       .  S
H666        O667   0.966       .  S
O667       Ni675   1.908       .  S
O667       Ni669   1.915       .  S
O667       Ni674   1.920       .  S
O668       Ni669   1.910       .  S
Ni669       O673   1.915       .  S
Ni669       O671   1.926       .  S
O670       Ni675   1.969       .  S
C672        O673   1.270       .  A
C672       C1373   1.481       .  S
O677       Ni683   1.918       .  S
O677        C698   1.268       .  A
O678       Ni701   1.914       .  S
O678        C687   1.269       .  A
O679       Ni683   1.899       .  S
O679       Ni701   1.903       .  S
O679       Ni695   1.921   1_556  S
O679        H702   0.966       .  S
C680        O697   1.282       .  A
C680        O689   1.278       .  A
C680       C2141   1.475       .  S
O681       Ni700   1.934   1_556  S
O681        C687   1.273       .  A
O682       Ni700   1.918       .  S
O682        C684   1.270   1_554  A
Ni683       O686   1.922       .  S
Ni683       O688   1.895       .  S
C684        O694   1.265       .  A
C684       C1325   1.487       .  S
O685       Ni701   1.911       .  S
O685        C691   1.274       .  A
O686        C691   1.277       .  A
C687       C2549   1.482       .  S
O688        C690   1.267       .  A
O689       Ni700   1.917       .  S
C690        O696   1.275       .  A
C690       C2846   1.468       .  S
C691       C1301   1.486       .  S
H692        O693   0.966       .  S
O693       Ni701   1.907   1_554  S
O693       Ni695   1.904       .  S
O693       Ni700   1.903       .  S
O694       Ni695   1.908   1_556  S
Ni695       O699   1.914       .  S
Ni695       O697   1.934       .  S
O696       Ni701   1.939       .  S
C698        O699   1.268   1_556  A
C698       C1469   1.485       .  S
O703       Ni709   1.933   1_455  S
O703        C724   1.274       .  A
O704       Ni727   1.915       .  S
O704        C713   1.267       .  A
O705       Ni709   1.905       .  S
O705       Ni727   1.910       .  S
O705       Ni721   1.917       .  S
O705        H728   0.966       .  S
C706        O723   1.281       .  A
C706        O715   1.277       .  A
C706       C1526   1.473       .  S
O707       Ni726   1.934       .  S
O707        C713   1.272       .  A
O708       Ni726   1.916       .  S
O708        C710   1.270       .  A
Ni709       O712   1.941       .  S
Ni709       O714   1.900       .  S
C710        O720   1.268       .  A
C710       C1382   1.481       .  S
O711       Ni727   1.890       .  S
O711        C717   1.267       .  A
O712        C717   1.278       .  A
C713       C1286   1.484       .  S
O714        C716   1.269       .  A
O715       Ni726   1.912       .  S
C716        O722   1.279       .  A
C716       C1229   1.484       .  S
C717       C1310   1.485       .  S
H718        O719   0.966       .  S
O719       Ni727   1.897       .  S
O719       Ni721   1.902       .  S
O719       Ni726   1.904       .  S
O720       Ni721   1.916       .  S
Ni721       O725   1.906       .  S
Ni721       O723   1.932       .  S
O722       Ni727   1.953       .  S
C724        O725   1.270   1_455  A
C724       C1253   1.490       .  S
O729       Ni735   1.922       .  S
O729        C750   1.269       .  A
O730       Ni753   1.915       .  S
O730        C739   1.271       .  A
O731       Ni735   1.895       .  S
O731       Ni753   1.902       .  S
O731       Ni747   1.913   1_556  S
O731        H754   0.966       .  S
C732        O749   1.277       .  A
C732        O741   1.275       .  A
C732       C1958   1.467       .  S
O733       Ni752   1.926   1_556  S
O733        C739   1.272       .  A
O734       Ni752   1.911   1_556  S
O734        C736   1.269       .  A
Ni735       O738   1.911       .  S
Ni735       O740   1.901       .  S
C736        O746   1.269       .  A
C736       C1445   1.479       .  S
O737       Ni753   1.932       .  S
O737        C743   1.279       .  A
O738        C743   1.275       .  A
C739       C2765   1.478       .  S
O740        C742   1.268       .  A
O741       Ni752   1.922       .  S
C742        O748   1.275       .  A
C742       C2414   1.473       .  S
C743       C1214   1.489       .  S
H744        O745   0.966       .  S
O745       Ni753   1.915   1_554  S
O745       Ni747   1.912       .  S
O745       Ni752   1.905       .  S
O746       Ni747   1.915   1_556  S
Ni747       O751   1.918   1_554  S
Ni747       O749   1.920       .  S
O748       Ni753   1.937       .  S
C750        O751   1.270       .  A
C750       C1334   1.490       .  S
O755       Ni761   1.922       .  S
O755        C776   1.268       .  A
O756       Ni779   1.911       .  S
O756        C765   1.269       .  A
O757       Ni761   1.905       .  S
O757       Ni779   1.906       .  S
O757       Ni773   1.912       .  S
O757        H780   0.966       .  S
C758        O775   1.274       .  A
C758        O767   1.272       .  A
C758       C1757   1.472       .  S
O759       Ni778   1.931       .  S
O759        C765   1.273       .  A
O760       Ni778   1.914       .  S
O760        C762   1.272       .  A
Ni761       O764   1.922       .  S
Ni761       O766   1.900       .  S
C762        O772   1.271       .  A
C762       C1262   1.482       .  S
O763       Ni779   1.920       .  S
O763        C769   1.276       .  A
O764        C769   1.275       .  A
C765       C1190   1.486       .  S
O766        C768   1.268       .  A
O767       Ni778   1.917       .  S
C768        O774   1.274       .  A
C768       C1166   1.474       .  S
C769       C1205   1.485       .  S
H770        O771   0.966       .  S
O771       Ni779   1.922       .  S
O771       Ni773   1.922       .  S
O771       Ni778   1.917       .  S
O772       Ni773   1.919       .  S
Ni773       O777   1.915       .  S
Ni773       O775   1.920       .  S
O774       Ni779   1.938       .  S
C776        O777   1.269       .  A
C776       C1397   1.486       .  S
O781       Ni787   1.935       .  S
O781        C802   1.274       .  A
O782       Ni805   1.912       .  S
O782        C791   1.268       .  A
O783       Ni787   1.905       .  S
O783       Ni805   1.906       .  S
O783       Ni799   1.910       .  S
O783        H806   0.966       .  S
C784        O801   1.277       .  A
C784        O793   1.276       .  A
C784       C1133   1.483       .  S
O785       Ni804   1.924       .  S
O785        C791   1.269       .  A
O786       Ni804   1.901       .  S
O786        C788   1.268       .  A
Ni787       O790   1.925       .  S
Ni787       O792   1.915       .  S
C788        O798   1.273       .  A
C788       C1853   1.470       .  S
O789       Ni805   1.920       .  S
O789        C795   1.277       .  A
O790        C795   1.277       .  A
C791       C1085   1.483       .  S
O792        C794   1.271       .  A
O793       Ni804   1.924       .  S
C794        O800   1.269       .  A
C794       C1118   1.493       .  S
C795       C3053   1.468       .  S
H796        O797   0.966       .  S
O797       Ni805   1.919       .  S
O797       Ni799   1.907       .  S
O797       Ni804   1.902       .  S
O798       Ni799   1.933       .  S
Ni799       O803   1.911       .  S
Ni799       O801   1.923       .  S
O800       Ni805   1.919       .  S
C802        O803   1.269       .  A
C802       C1550   1.482       .  S
O807       Ni813   1.927       .  S
O807        C828   1.274       .  A
O808       Ni831   1.901       .  S
O808        C817   1.269       .  A
O809       Ni813   1.898       .  S
O809       Ni831   1.898       .  S
O809       Ni825   1.909       .  S
O809        H832   0.966       .  S
C810        O827   1.274       .  A
C810        O819   1.280       .  A
C810       C1142   1.480       .  S
O811       Ni830   1.937       .  S
O811        C817   1.276       .  A
O812       Ni830   1.898       .  S
O812        C814   1.267       .  A
Ni813       O816   1.916       .  S
Ni813       O818   1.924       .  S
C814        O824   1.279       .  A
C814       C1181   1.482       .  S
O815       Ni831   1.932       .  S
O815        C821   1.278       .  A
O816        C821   1.276       .  A
C817       C1046   1.489       .  S
O818        C820   1.272       .  A
O819       Ni830   1.945       .  S
C820        O826   1.269       .  A
C820       C1070   1.492       .  S
C821       C2534   1.475       .  S
H822        O823   0.966       .  S
O823       Ni831   1.911       .  S
O823       Ni825   1.906       .  S
O823       Ni830   1.894       .  S
O824       Ni825   1.957       .  S
Ni825       O829   1.921       .  S
Ni825       O827   1.908       .  S
O826       Ni831   1.916       .  S
C828        O829   1.272       .  A
C828       C1358   1.493       .  S
O833       Ni839   1.929       .  S
O833        C854   1.274   1_565  A
O834       Ni857   1.910       .  S
O834        C843   1.269       .  A
O835       Ni839   1.902       .  S
O835       Ni857   1.905       .  S
O835       Ni851   1.917       .  S
O835        H858   0.966       .  S
C836        O853   1.278       .  A
C836        O845   1.276       .  A
C836        C989   1.487       .  S
O837       Ni856   1.927       .  S
O837        C843   1.272       .  A
O838       Ni856   1.902       .  S
O838        C840   1.268   1_565  A
Ni839       O842   1.912       .  S
Ni839       O844   1.925       .  S
C840        O850   1.275       .  A
C840       C1277   1.472       .  S
O841       Ni857   1.929       .  S
O841        C847   1.279       .  A
O842        C847   1.276       .  A
C843       C1061   1.489       .  S
O844        C846   1.273       .  A
O845       Ni856   1.918       .  S
C846        O852   1.268       .  A
C846       C1013   1.481       .  S
C847       C2357   1.477       .  S
H848        O849   0.966       .  S
O849       Ni857   1.913       .  S
O849       Ni851   1.901       .  S
O849       Ni856   1.897       .  S
O850       Ni851   1.941   1_545  S
Ni851       O855   1.916   1_565  S
Ni851       O853   1.924       .  S
O852       Ni857   1.911       .  S
C854        O855   1.271       .  A
C854       C1157   1.481       .  S
O859       Ni865   1.929       .  S
O859        C880   1.273       .  A
O860       Ni883   1.912       .  S
O860        C869   1.270       .  A
O861       Ni865   1.899       .  S
O861       Ni883   1.903       .  S
O861       Ni877   1.909       .  S
O861        H884   0.966       .  S
C862        O879   1.272       .  A
C862        O871   1.277       .  A
C862        C998   1.483       .  S
O863       Ni882   1.923       .  S
O863        C869   1.269       .  A
O864       Ni882   1.890       .  S
O864        C866   1.266       .  A
Ni865       O868   1.912       .  S
Ni865       O870   1.919       .  S
C866        O876   1.278       .  A
C866       C1574   1.477       .  S
O867       Ni883   1.932       .  S
O867        C873   1.280       .  A
O868        C873   1.277       .  A
C869        C965   1.483       .  S
O870        C872   1.272       .  A
O871       Ni882   1.927       .  S
C872        O878   1.269       .  A
C872       C1094   1.493       .  S
C873       C2885   1.474       .  S
H874        O875   0.966       .  S
O875       Ni883   1.918       .  S
O875       Ni877   1.909       .  S
O875       Ni882   1.900       .  S
O876       Ni877   1.951       .  S
Ni877       O881   1.917       .  S
Ni877       O879   1.907       .  S
O878       Ni883   1.918       .  S
C880        O881   1.270       .  A
C880       C1646   1.490       .  S
O885       Ni891   1.922       .  S
O885        C906   1.269       .  A
O886       Ni909   1.910       .  S
O886        C895   1.267       .  A
O887       Ni891   1.924       .  S
O887       Ni909   1.924       .  S
O887       Ni903   1.914       .  S
O887        H910   0.967       .  S
C888        O905   1.268       .  A
C888        O897   1.274       .  A
C888        C941   1.480       .  S
O889       Ni908   1.928       .  S
O889        C895   1.271       .  A
O890       Ni908   1.893       .  S
O890        C892   1.267       .  A
Ni891       O894   1.910       .  S
Ni891       O896   1.913       .  S
C892        O902   1.277       .  A
C892       C1430   1.479       .  S
O893       Ni909   1.919       .  S
O893        C899   1.272       .  A
O894        C899   1.269       .  A
C895       C1022   1.492       .  S
O896        C898   1.271       .  A
O897       Ni908   1.930       .  S
C898        O904   1.269       .  A
C898       C1037   1.480       .  S
C899       C2750   1.467       .  S
H900        O901   0.966       .  S
O901       Ni909   1.915       .  S
O901       Ni903   1.916       .  S
O901       Ni908   1.916       .  S
O902       Ni903   1.949       .  S
Ni903       O907   1.916       .  S
Ni903       O905   1.898       .  S
O904       Ni909   1.918       .  S
C906        O907   1.267       .  A
C906       C1238   1.481       .  S
O911       Ni917   1.929       .  S
O911        C932   1.271   1_655  A
O912       Ni935   1.915       .  S
O912        C921   1.268       .  A
O913       Ni917   1.903       .  S
O913       Ni935   1.906       .  S
O913       Ni929   1.907       .  S
O913        H936   0.967       .  S
C914        O931   1.277       .  A
C914        O923   1.274       .  A
C914        C950   1.484       .  S
O915       Ni934   1.922       .  S
O915        C921   1.269       .  A
O916       Ni934   1.901       .  S
O916        C918   1.269   1_655  A
Ni917       O920   1.917       .  S
Ni917       O922   1.914       .  S
C918        O928   1.273       .  A
C918       C1670   1.464       .  S
O919       Ni935   1.923       .  S
O919        C925   1.279       .  A
O920        C925   1.278       .  A
C921       C1109   1.484       .  S
O922        C924   1.269       .  A
O923       Ni934   1.913       .  S
C924        O930   1.266       .  A
C924        C974   1.486       .  S
C925       C3398   1.470       .  S
H926        O927   0.966       .  S
O927       Ni935   1.922       .  S
O927       Ni929   1.913       .  S
O927       Ni934   1.904       .  S
O928       Ni929   1.930   1_455  S
Ni929       O933   1.927   1_655  S
Ni929       O931   1.923       .  S
O930       Ni935   1.905       .  S
C932        O933   1.272       .  A
C932       C1790   1.483       .  S
C937        C938   1.403       .  A
C937        C942   1.399       .  A
C937        H947   1.083       .  S
C938        C943   1.479       .  S
C938        C939   1.406       .  A
C939        C940   1.398       .  A
C939        O944   1.372       .  S
C940        C941   1.406       .  A
C940        H945   1.084       .  S
C941        C942   1.412       .  A
C942        O946   1.372       .  S
C943        C948   1.405   1_455  A
C943        C952   1.403       .  A
O944        H960   0.992       .  S
O946        H957   0.992       .  S
C948        C949   1.398       .  A
C948        O953   1.373       .  S
C949        C950   1.408       .  A
C949        H954   1.083       .  S
C950        C951   1.412   1_655  A
C951        C952   1.400       .  A
C951        O955   1.372       .  S
C952        H956   1.084       .  S
O953        H958   0.992       .  S
O955        H959   0.992       .  S
C961        C962   1.399       .  A
C961        C966   1.396       .  A
C961        H971   1.084       .  S
C962        C967   1.482       .  S
C962        C963   1.410       .  A
C963        C964   1.404       .  A
C963        O968   1.373       .  S
C964        C965   1.405       .  A
C964        H969   1.084       .  S
C965        C966   1.415       .  A
C966        O970   1.372       .  S
C967        C972   1.406       .  A
C967        C976   1.405       .  A
O968        H984   0.992       .  S
O970        H981   0.992       .  S
C972        C973   1.395       .  A
C972        O977   1.372       .  S
C973        C974   1.410       .  A
C973        H978   1.083       .  S
C974        C975   1.412       .  A
C975        C976   1.401       .  A
C975        O979   1.371       .  S
C976        H980   1.084       .  S
O977        H982   0.992       .  S
O979        H983   0.992       .  S
C985        C986   1.399   1_565  A
C985        C990   1.397       .  A
C985        H995   1.084       .  S
C986        C991   1.478       .  S
C986        C987   1.407       .  A
C987        C988   1.402       .  A
C987        O992   1.372       .  S
C988        C989   1.407   1_545  A
C988        H993   1.083       .  S
C989        C990   1.416       .  A
C990        O994   1.372       .  S
C991        C996   1.406       .  A
C991       C1000   1.402       .  A
O992       H1008   0.992       .  S
O994       H1005   0.992       .  S
C996        C997   1.397       .  A
C996       O1001   1.372       .  S
C997        C998   1.406       .  A
C997       H1002   1.084       .  S
C998        C999   1.414       .  A
C999       C1000   1.401       .  A
C999       O1003   1.371       .  S
C1000      H1004   1.084       .  S
O1001      H1006   0.992       .  S
O1003      H1007   0.992       .  S
C1009      C1010   1.400       .  A
C1009      C1014   1.400       .  A
C1009      H1019   1.084       .  S
C1010      C1015   1.477       .  S
C1010      C1011   1.406       .  A
C1011      C1012   1.403       .  A
C1011      O1016   1.371       .  S
C1012      C1013   1.407       .  A
C1012      H1017   1.084       .  S
C1013      C1014   1.411       .  A
C1014      O1018   1.372       .  S
C1015      C1020   1.402       .  A
C1015      C1024   1.402       .  A
O1016      H1032   0.992       .  S
O1018      H1029   0.992       .  S
C1020      C1021   1.398       .  A
C1020      O1025   1.372       .  S
C1021      C1022   1.410       .  A
C1021      H1026   1.083       .  S
C1022      C1023   1.415       .  A
C1023      C1024   1.405       .  A
C1023      O1027   1.372       .  S
C1024      H1028   1.084       .  S
O1025      H1030   0.992       .  S
O1027      H1031   0.992       .  S
C1033      C1034   1.402       .  A
C1033      C1038   1.400       .  A
C1033      H1043   1.084       .  S
C1034      C1039   1.482       .  S
C1034      C1035   1.408       .  A
C1035      C1036   1.401       .  A
C1035      O1040   1.372       .  S
C1036      C1037   1.405       .  A
C1036      H1041   1.083       .  S
C1037      C1038   1.412       .  A
C1038      O1042   1.373       .  S
C1039      C1044   1.405       .  A
C1039      C1048   1.403       .  A
O1040      H1056   0.992       .  S
O1042      H1053   0.992       .  S
C1044      C1045   1.397       .  A
C1044      O1049   1.371       .  S
C1045      C1046   1.409       .  A
C1045      H1050   1.083       .  S
C1046      C1047   1.414       .  A
C1047      C1048   1.402       .  A
C1047      O1051   1.372       .  S
C1048      H1052   1.084       .  S
O1049      H1054   0.992       .  S
O1051      H1055   0.992       .  S
C1057      C1058   1.402       .  A
C1057      C1062   1.402       .  A
C1057      H1067   1.084       .  S
C1058      C1063   1.480       .  S
C1058      C1059   1.404       .  A
C1059      C1060   1.400       .  A
C1059      O1064   1.372       .  S
C1060      C1061   1.409       .  A
C1060      H1065   1.083       .  S
C1061      C1062   1.415       .  A
C1062      O1066   1.372       .  S
C1063      C1068   1.405       .  A
C1063      C1072   1.400       .  A
O1064      H1080   0.992       .  S
O1066      H1077   0.992       .  S
C1068      C1069   1.402       .  A
C1068      O1073   1.372       .  S
C1069      C1070   1.410       .  A
C1069      H1074   1.083       .  S
C1070      C1071   1.416       .  A
C1071      C1072   1.401       .  A
C1071      O1075   1.372       .  S
C1072      H1076   1.084       .  S
O1073      H1078   0.992       .  S
O1075      H1079   0.991       .  S
C1081      C1082   1.404       .  A
C1081      C1086   1.403       .  A
C1081      H1091   1.084       .  S
C1082      C1087   1.479       .  S
C1082      C1083   1.404       .  A
C1083      C1084   1.400       .  A
C1083      O1088   1.372       .  S
C1084      C1085   1.408       .  A
C1084      H1089   1.083       .  S
C1085      C1086   1.411       .  A
C1086      O1090   1.372       .  S
C1087      C1092   1.405       .  A
C1087      C1096   1.400       .  A
O1088      H1104   0.992       .  S
O1090      H1101   0.992       .  S
C1092      C1093   1.403       .  A
C1092      O1097   1.372       .  S
C1093      C1094   1.410       .  A
C1093      H1098   1.083       .  S
C1094      C1095   1.418       .  A
C1095      C1096   1.400       .  A
C1095      O1099   1.372       .  S
C1096      H1100   1.084       .  S
O1097      H1102   0.992       .  S
O1099      H1103   0.992       .  S
C1105      C1106   1.405       .  A
C1105      C1110   1.403       .  A
C1105      H1115   1.084       .  S
C1106      C1111   1.483       .  S
C1106      C1107   1.405       .  A
C1107      C1108   1.402       .  A
C1107      O1112   1.372       .  S
C1108      C1109   1.407       .  A
C1108      H1113   1.084       .  S
C1109      C1110   1.410       .  A
C1110      O1114   1.371       .  S
C1111      C1116   1.407       .  A
C1111      C1120   1.400       .  A
O1112      H1128   0.992       .  S
O1114      H1125   0.992       .  S
C1116      C1117   1.403       .  A
C1116      O1121   1.372       .  S
C1117      C1118   1.408       .  A
C1117      H1122   1.083       .  S
C1118      C1119   1.418       .  A
C1119      C1120   1.401       .  A
C1119      O1123   1.372       .  S
C1120      H1124   1.084       .  S
O1121      H1126   0.992       .  S
O1123      H1127   0.992       .  S
C1129      C1130   1.405       .  A
C1129      C1134   1.401       .  A
C1129      H1139   1.083       .  S
C1130      C1135   1.490       .  S
C1130      C1131   1.411       .  A
C1131      C1132   1.401       .  A
C1131      O1136   1.372       .  S
C1132      C1133   1.405       .  A
C1132      H1137   1.084       .  S
C1133      C1134   1.410       .  A
C1134      O1138   1.372       .  S
C1135      C1140   1.411       .  A
C1135      C1144   1.406       .  A
O1136      H1152   0.992       .  S
O1138      H1149   0.992       .  S
C1140      C1141   1.402       .  A
C1140      O1145   1.371       .  S
C1141      C1142   1.404       .  A
C1141      H1146   1.084       .  S
C1142      C1143   1.410       .  A
C1143      C1144   1.402       .  A
C1143      O1147   1.372       .  S
C1144      H1148   1.083       .  S
O1145      H1150   0.991       .  S
O1147      H1151   0.992       .  S
C1153      C1154   1.402       .  A
C1153      C1158   1.398       .  A
C1153      H1163   1.084       .  S
C1154      C1159   1.483       .  S
C1154      C1155   1.409       .  A
C1155      C1156   1.408       .  A
C1155      O1160   1.372       .  S
C1156      C1157   1.406       .  A
C1156      H1161   1.084       .  S
C1157      C1158   1.409       .  A
C1158      O1162   1.372       .  S
C1159      C1164   1.408       .  A
C1159      C1168   1.406       .  A
O1160      H1176   0.992       .  S
O1162      H1173   0.992       .  S
C1164      C1165   1.399       .  A
C1164      O1169   1.372       .  S
C1165      C1166   1.403       .  A
C1165      H1170   1.084       .  S
C1166      C1167   1.407       .  A
C1167      C1168   1.405       .  A
C1167      O1171   1.372       .  S
C1168      H1172   1.083       .  S
O1169      H1174   0.992       .  S
O1171      H1175   0.992       .  S
C1177      C1178   1.404       .  A
C1177      C1182   1.404       .  A
C1177      H1187   1.083       .  S
C1178      C1183   1.484       .  S
C1178      C1179   1.407       .  A
C1179      C1180   1.400       .  A
C1179      O1184   1.372       .  S
C1180      C1181   1.406       .  A
C1180      H1185   1.084       .  S
C1181      C1182   1.411       .  A
C1182      O1186   1.371       .  S
C1183      C1188   1.407       .  A
C1183      C1192   1.403       .  A
O1184      H1200   0.992       .  S
O1186      H1197   0.992       .  S
C1188      C1189   1.399       .  A
C1188      O1193   1.372       .  S
C1189      C1190   1.405       .  A
C1189      H1194   1.084       .  S
C1190      C1191   1.411       .  A
C1191      C1192   1.406       .  A
C1191      O1195   1.369       .  S
C1192      H1196   1.083       .  S
O1193      H1198   0.992       .  S
O1195      H1199   0.992       .  S
C1201      C1202   1.403       .  A
C1201      C1206   1.401       .  A
C1201      H1211   1.083       .  S
C1202      C1207   1.486       .  S
C1202      C1203   1.410       .  A
C1203      C1204   1.399       .  A
C1203      O1208   1.372       .  S
C1204      C1205   1.404       .  A
C1204      H1209   1.080       .  S
C1205      C1206   1.413       .  A
C1206      O1210   1.372       .  S
C1207      C1212   1.410       .  A
C1207      C1216   1.401       .  A
O1208      H1224   0.992       .  S
O1210      H1221   0.992       .  S
C1212      C1213   1.406       .  A
C1212      O1217   1.372       .  S
C1213      C1214   1.409       .  A
C1213      H1218   1.083       .  S
C1214      C1215   1.414       .  A
C1215      C1216   1.395       .  A
C1215      O1219   1.372       .  S
C1216      H1220   1.084       .  S
O1217      H1222   0.992       .  S
O1219      H1223   0.992       .  S
C1225      C1226   1.405       .  A
C1225      C1230   1.404       .  A
C1225      H1235   1.084       .  S
C1226      C1231   1.487       .  S
C1226      C1227   1.408       .  A
C1227      C1228   1.402       .  A
C1227      O1232   1.372   1_655  S
C1228      C1229   1.406       .  A
C1228      H1233   1.084       .  S
C1229      C1230   1.411       .  A
C1230      O1234   1.372       .  S
C1231      C1236   1.411       .  A
C1231      C1240   1.402       .  A
O1232      H1248   0.992       .  S
O1234      H1245   0.992       .  S
C1236      C1237   1.408   1_655  A
C1236      O1241   1.371       .  S
C1237      C1238   1.406       .  A
C1237      H1242   1.084       .  S
C1238      C1239   1.409       .  A
C1239      C1240   1.396   1_455  A
C1239      O1243   1.372       .  S
C1240      H1244   1.084       .  S
O1241      H1246   0.992       .  S
O1243      H1247   0.992       .  S
C1249      C1250   1.403       .  A
C1249      C1254   1.402       .  A
C1249      H1259   1.084       .  S
C1250      C1255   1.482       .  S
C1250      C1251   1.405       .  A
C1251      C1252   1.399       .  A
C1251      O1256   1.372       .  S
C1252      C1253   1.409       .  A
C1252      H1257   1.083       .  S
C1253      C1254   1.414       .  A
C1254      O1258   1.371       .  S
C1255      C1260   1.407       .  A
C1255      C1264   1.403       .  A
O1256      H1272   0.992       .  S
O1258      H1269   0.991       .  S
C1260      C1261   1.400       .  A
C1260      O1265   1.372       .  S
C1261      C1262   1.407       .  A
C1261      H1266   1.084       .  S
C1262      C1263   1.412       .  A
C1263      C1264   1.400       .  A
C1263      O1267   1.371       .  S
C1264      H1268   1.084       .  S
O1265      H1270   0.992       .  S
O1267      H1271   0.992       .  S
C1273      C1274   1.402       .  A
C1273      C1278   1.399       .  A
C1273      H1283   1.084       .  S
C1274      C1279   1.483       .  S
C1274      C1275   1.409       .  A
C1275      C1276   1.407       .  A
C1275      O1280   1.372       .  S
C1276      C1277   1.403       .  A
C1276      H1281   1.084       .  S
C1277      C1278   1.407       .  A
C1278      O1282   1.372       .  S
C1279      C1284   1.407       .  A
C1279      C1288   1.405       .  A
O1280      H1296   0.992       .  S
O1282      H1293   0.992       .  S
C1284      C1285   1.399       .  A
C1284      O1289   1.372       .  S
C1285      C1286   1.405       .  A
C1285      H1290   1.084       .  S
C1286      C1287   1.411       .  A
C1287      C1288   1.406       .  A
C1287      O1291   1.371       .  S
C1288      H1292   1.083       .  S
O1289      H1294   0.992       .  S
O1291      H1295   0.992       .  S
C1297      C1298   1.401       .  A
C1297      C1302   1.398       .  A
C1297      H1307   1.084       .  S
C1298      C1303   1.478       .  S
C1298      C1299   1.405       .  A
C1299      C1300   1.400       .  A
C1299      O1304   1.373       .  S
C1300      C1301   1.408       .  A
C1300      H1305   1.083       .  S
C1301      C1302   1.415       .  A
C1302      O1306   1.372       .  S
C1303      C1308   1.407       .  A
C1303      C1312   1.400       .  A
O1304      H1320   0.992       .  S
O1306      H1317   0.992       .  S
C1308      C1309   1.398       .  A
C1308      O1313   1.371       .  S
C1309      C1310   1.408       .  A
C1309      H1314   1.083       .  S
C1310      C1311   1.416       .  A
C1311      C1312   1.397       .  A
C1311      O1315   1.372       .  S
C1312      H1316   1.084       .  S
O1313      H1318   0.992       .  S
O1315      H1319   0.992       .  S
C1321      C1322   1.401       .  A
C1321      C1326   1.400       .  A
C1321      H1331   1.084       .  S
C1322      C1327   1.483       .  S
C1322      C1323   1.408       .  A
C1323      C1324   1.401       .  A
C1323      O1328   1.372   1_556  S
C1324      C1325   1.407       .  A
C1324      H1329   1.083   1_556  S
C1325      C1326   1.416       .  A
C1326      O1330   1.373       .  S
C1327      C1332   1.409       .  A
C1327      C1336   1.400       .  A
O1328      H1344   0.992       .  S
O1330      H1341   0.992       .  S
C1332      C1333   1.401       .  A
C1332      O1337   1.372   1_556  S
C1333      C1334   1.407       .  A
C1333      H1338   1.083   1_556  S
C1334      C1335   1.417       .  A
C1335      C1336   1.400       .  A
C1335      O1339   1.372       .  S
C1336      H1340   1.084       .  S
O1337      H1342   0.992       .  S
O1339      H1343   0.992       .  S
C1345      C1346   1.402       .  A
C1345      C1350   1.398       .  A
C1345      H1355   1.084       .  S
C1346      C1351   1.483       .  S
C1346      C1347   1.409       .  A
C1347      C1348   1.407       .  A
C1347      O1352   1.372       .  S
C1348      C1349   1.406       .  A
C1348      H1353   1.084       .  S
C1349      C1350   1.410       .  A
C1350      O1354   1.372       .  S
C1351      C1356   1.405       .  A
C1351      C1360   1.403       .  A
O1352      H1368   0.992       .  S
O1354      H1365   0.992       .  S
C1356      C1357   1.397       .  A
C1356      O1361   1.372       .  S
C1357      C1358   1.408       .  A
C1357      H1362   1.083       .  S
C1358      C1359   1.416       .  A
C1359      C1360   1.409       .  A
C1359      O1363   1.371       .  S
C1360      H1364   1.083       .  S
O1361      H1366   0.992       .  S
O1363      H1367   0.992       .  S
C1369      C1370   1.399       .  A
C1369      C1374   1.396       .  A
C1369      H1379   1.084       .  S
C1370      C1375   1.479       .  S
C1370      C1371   1.409       .  A
C1371      C1372   1.403       .  A
C1371      O1376   1.371       .  S
C1372      C1373   1.405       .  A
C1372      H1377   1.084       .  S
C1373      C1374   1.414       .  A
C1374      O1378   1.372       .  S
C1375      C1380   1.406       .  A
C1375      C1384   1.402   1_565  A
O1376      H1392   0.992       .  S
O1378      H1389   0.992       .  S
C1380      C1381   1.399   1_565  A
C1380      O1385   1.372       .  S
C1381      C1382   1.406       .  A
C1381      H1386   1.084       .  S
C1382      C1383   1.412       .  A
C1383      C1384   1.401       .  A
C1383      O1387   1.372       .  S
C1384      H1388   1.084       .  S
O1385      H1390   0.992       .  S
O1387      H1391   0.992       .  S
C1393      C1394   1.399       .  A
C1393      C1398   1.400   1_565  A
C1393      H1403   1.084       .  S
C1394      C1399   1.478       .  S
C1394      C1395   1.408   1_565  A
C1395      C1396   1.400       .  A
C1395      O1400   1.372   1_545  S
C1396      C1397   1.406       .  A
C1396      H1401   1.083       .  S
C1397      C1398   1.417       .  A
C1398      O1402   1.372       .  S
C1399      C1404   1.406       .  A
C1399      C1408   1.398       .  A
O1400      H1416   0.992       .  S
O1402      H1413   0.992       .  S
C1404      C1405   1.403       .  A
C1404      O1409   1.371       .  S
C1405      C1406   1.409       .  A
C1405      H1410   1.083       .  S
C1406      C1407   1.418       .  A
C1407      C1408   1.396       .  A
C1407      O1411   1.372       .  S
C1408      H1412   1.084       .  S
O1409      H1414   0.992       .  S
O1411      H1415   0.992       .  S
C1417      C1418   1.405       .  A
C1417      C1422   1.405       .  A
C1417      H1427   1.083       .  S
C1418      C1423   1.483       .  S
C1418      C1419   1.409       .  A
C1419      C1420   1.398       .  A
C1419      O1424   1.372       .  S
C1420      C1421   1.402       .  A
C1420      H1425   1.084       .  S
C1421      C1422   1.409       .  A
C1422      O1426   1.371       .  S
C1423      C1428   1.407   1_655  A
C1423      C1432   1.406       .  A
O1424      H1440   0.992   1_655  S
O1426      H1437   0.992       .  S
C1428      C1429   1.398       .  A
C1428      O1433   1.372       .  S
C1429      C1430   1.405       .  A
C1429      H1434   1.084       .  S
C1430      C1431   1.409       .  A
C1431      C1432   1.404   1_455  A
C1431      O1435   1.371       .  S
C1432      H1436   1.083       .  S
O1433      H1438   0.992       .  S
O1435      H1439   0.992   1_455  S
C1441      C1442   1.404       .  A
C1441      C1446   1.398       .  A
C1441      H1451   1.083   1_556  S
C1442      C1447   1.482       .  S
C1442      C1443   1.407       .  A
C1443      C1444   1.397       .  A
C1443      O1448   1.372       .  S
C1444      C1445   1.407       .  A
C1444      H1449   1.084       .  S
C1445      C1446   1.411       .  A
C1446      O1450   1.372   1_556  S
C1447      C1452   1.404       .  A
C1447      C1456   1.407   1_556  A
O1448      H1464   0.992       .  S
O1450      H1461   0.992       .  S
C1452      C1453   1.395       .  A
C1452      O1457   1.373       .  S
C1453      C1454   1.409       .  A
C1453      H1458   1.083       .  S
C1454      C1455   1.412   1_556  A
C1455      C1456   1.402       .  A
C1455      O1459   1.372       .  S
C1456      H1460   1.084       .  S
O1457      H1462   0.992       .  S
O1459      H1463   0.992       .  S
C1465      C1466   1.402   1_554  A
C1465      C1470   1.401       .  A
C1465      H1475   1.084       .  S
C1466      C1471   1.475       .  S
C1466      C1467   1.403       .  A
C1467      C1468   1.396       .  A
C1467      O1472   1.372       .  S
C1468      C1469   1.409       .  A
C1468      H1473   1.083       .  S
C1469      C1470   1.413   1_556  A
C1470      O1474   1.371       .  S
C1471      C1476   1.403       .  A
C1471      C1480   1.401   1_556  A
O1472      H1488   0.992       .  S
O1474      H1485   0.992       .  S
C1476      C1477   1.398       .  A
C1476      O1481   1.372       .  S
C1477      C1478   1.410   1_556  A
C1477      H1482   1.083       .  S
C1478      C1479   1.414       .  A
C1479      C1480   1.399       .  A
C1479      O1483   1.371       .  S
C1480      H1484   1.084       .  S
O1481      H1486   0.992       .  S
O1483      H1487   0.992       .  S
C1489      C1490   1.406       .  A
C1489      C1494   1.397       .  A
C1489      H1499   1.083       .  S
C1490      C1495   1.483       .  S
C1490      C1491   1.410       .  A
C1491      C1492   1.399       .  A
C1491      O1496   1.372       .  S
C1492      C1493   1.403       .  A
C1492      H1497   1.084       .  S
C1493      C1494   1.406       .  A
C1494      O1498   1.372       .  S
C1495      C1500   1.409       .  A
C1495      C1504   1.405       .  A
O1496      H1512   0.992       .  S
O1498      H1509   0.992       .  S
C1500      C1501   1.395       .  A
C1500      O1505   1.372       .  S
C1501      C1502   1.403       .  A
C1501      H1506   1.084       .  S
C1502      C1503   1.410       .  A
C1503      C1504   1.400       .  A
C1503      O1507   1.372       .  S
C1504      H1508   1.083       .  S
O1505      H1510   0.992       .  S
O1507      H1511   0.992       .  S
C1513      C1514   1.402       .  A
C1513      C1518   1.396   1_545  A
C1513      H1523   1.084       .  S
C1514      C1519   1.474       .  S
C1514      C1515   1.405       .  A
C1515      C1516   1.403       .  A
C1515      O1520   1.371       .  S
C1516      C1517   1.405   1_545  A
C1516      H1521   1.084       .  S
C1517      C1518   1.406       .  A
C1518      O1522   1.372       .  S
C1519      C1524   1.407       .  A
C1519      C1528   1.400       .  A
O1520      H1536   0.992       .  S
O1522      H1533   0.992       .  S
C1524      C1525   1.398       .  A
C1524      O1529   1.372       .  S
C1525      C1526   1.403       .  A
C1525      H1530   1.084       .  S
C1526      C1527   1.411       .  A
C1527      C1528   1.402       .  A
C1527      O1531   1.371       .  S
C1528      H1532   1.084       .  S
O1529      H1534   0.992       .  S
O1531      H1535   0.991       .  S
C1537      C1538   1.407       .  A
C1537      C1542   1.405       .  A
C1537      H1547   1.083       .  S
C1538      C1543   1.484       .  S
C1538      C1539   1.408       .  A
C1539      C1540   1.398       .  A
C1539      O1544   1.372       .  S
C1540      C1541   1.402       .  A
C1540      H1545   1.084       .  S
C1541      C1542   1.406       .  A
C1542      O1546   1.371       .  S
C1543      C1548   1.408       .  A
C1543      C1552   1.405       .  A
O1544      H1560   0.992       .  S
O1546      H1557   0.992       .  S
C1548      C1549   1.398       .  A
C1548      O1553   1.372       .  S
C1549      C1550   1.405       .  A
C1549      H1554   1.084       .  S
C1550      C1551   1.411       .  A
C1551      C1552   1.405       .  A
C1551      O1555   1.372       .  S
C1552      H1556   1.083       .  S
O1553      H1558   0.992       .  S
O1555      H1559   0.992       .  S
C1561      C1562   1.403       .  A
C1561      C1566   1.399       .  A
C1561      H1571   1.084       .  S
C1562      C1567   1.484       .  S
C1562      C1563   1.410       .  A
C1563      C1564   1.405       .  A
C1563      O1568   1.371       .  S
C1564      C1565   1.403       .  A
C1564      H1569   1.084       .  S
C1565      C1566   1.408       .  A
C1566      O1570   1.372       .  S
C1567      C1572   1.410       .  A
C1567      C1576   1.402   1_565  A
O1568      H1584   0.992       .  S
O1570      H1581   0.992       .  S
C1572      C1573   1.407   1_565  A
C1572      O1577   1.372       .  S
C1573      C1574   1.405       .  A
C1573      H1578   1.084       .  S
C1574      C1575   1.410       .  A
C1575      C1576   1.398       .  A
C1575      O1579   1.372       .  S
C1576      H1580   1.084       .  S
O1577      H1582   0.992       .  S
O1579      H1583   0.991       .  S
C1585      C1586   1.399       .  A
C1585      C1590   1.397       .  A
C1585      H1595   1.084       .  S
C1586      C1591   1.473       .  S
C1586      C1587   1.405       .  A
C1587      C1588   1.397       .  A
C1587      O1592   1.372       .  S
C1588      C1589   1.406       .  A
C1588      H1593   1.083       .  S
C1589      C1590   1.415       .  A
C1590      O1594   1.372       .  S
C1591      C1596   1.405       .  A
C1591      C1600   1.399       .  A
O1592      H1608   0.992       .  S
O1594      H1605   0.992       .  S
C1596      C1597   1.397       .  A
C1596      O1601   1.372       .  S
C1597      C1598   1.408       .  A
C1597      H1602   1.083       .  S
C1598      C1599   1.414       .  A
C1599      C1600   1.397       .  A
C1599      O1603   1.372       .  S
C1600      H1604   1.084       .  S
O1601      H1606   0.992       .  S
O1603      H1607   0.992       .  S
C1609      C1610   1.403   1_655  A
C1609      C1614   1.400       .  A
C1609      H1619   1.084       .  S
C1610      C1615   1.477       .  S
C1610      C1611   1.405       .  A
C1611      C1612   1.403   1_455  A
C1611      O1616   1.372       .  S
C1612      C1613   1.405       .  A
C1612      H1617   1.084       .  S
C1613      C1614   1.408       .  A
C1614      O1618   1.371       .  S
C1615      C1620   1.407       .  A
C1615      C1624   1.401       .  A
O1616      H1632   0.992       .  S
O1618      H1629   0.992       .  S
C1620      C1621   1.397       .  A
C1620      O1625   1.372       .  S
C1621      C1622   1.401       .  A
C1621      H1626   1.084       .  S
C1622      C1623   1.413       .  A
C1623      C1624   1.404       .  A
C1623      O1627   1.372       .  S
C1624      H1628   1.083       .  S
O1625      H1630   0.991       .  S
O1627      H1631   0.991       .  S
C1633      C1634   1.402       .  A
C1633      C1638   1.400       .  A
C1633      H1643   1.084   1_565  S
C1634      C1639   1.482       .  S
C1634      C1635   1.409       .  A
C1635      C1636   1.406       .  A
C1635      O1640   1.372       .  S
C1636      C1637   1.405       .  A
C1636      H1641   1.084       .  S
C1637      C1638   1.408       .  A
C1638      O1642   1.371       .  S
C1639      C1644   1.405   1_565  A
C1639      C1648   1.403       .  A
O1640      H1656   0.992       .  S
O1642      H1653   0.992       .  S
C1644      C1645   1.396       .  A
C1644      O1649   1.372       .  S
C1645      C1646   1.406       .  A
C1645      H1650   1.083       .  S
C1646      C1647   1.415       .  A
C1647      C1648   1.410   1_545  A
C1647      O1651   1.371       .  S
C1648      H1652   1.083       .  S
O1649      H1654   0.992       .  S
O1651      H1655   0.992   1_545  S
C1657      C1658   1.403       .  A
C1657      C1662   1.404       .  A
C1657      H1667   1.083       .  S
C1658      C1663   1.477       .  S
C1658      C1659   1.406       .  A
C1659      C1660   1.395       .  A
C1659      O1664   1.372       .  S
C1660      C1661   1.405       .  A
C1660      H1665   1.084       .  S
C1661      C1662   1.412       .  A
C1662      O1666   1.371       .  S
C1663      C1668   1.409       .  A
C1663      C1672   1.402       .  A
O1664      H1680   0.992       .  S
O1666      H1677   0.992       .  S
C1668      C1669   1.401       .  A
C1668      O1673   1.371       .  S
C1669      C1670   1.401       .  A
C1669      H1674   1.084       .  S
C1670      C1671   1.406       .  A
C1671      C1672   1.397       .  A
C1671      O1675   1.372       .  S
C1672      H1676   1.084       .  S
O1673      H1678   0.991       .  S
O1675      H1679   0.992       .  S
C1681      C1682   1.401       .  A
C1681      C1686   1.400       .  A
C1681      H1691   1.084       .  S
C1682      C1687   1.481       .  S
C1682      C1683   1.406   1_655  A
C1683      C1684   1.399       .  A
C1683      O1688   1.372       .  S
C1684      C1685   1.408       .  A
C1684      H1689   1.083       .  S
C1685      C1686   1.415   1_455  A
C1686      O1690   1.371       .  S
C1687      C1692   1.404       .  A
C1687      C1696   1.404       .  A
O1688      H1704   0.992   1_455  S
O1690      H1701   0.992       .  S
C1692      C1693   1.399       .  A
C1692      O1697   1.372       .  S
C1693      C1694   1.410       .  A
C1693      H1698   1.083       .  S
C1694      C1695   1.412       .  A
C1695      C1696   1.402       .  A
C1695      O1699   1.371       .  S
C1696      H1700   1.084       .  S
O1697      H1702   0.992       .  S
O1699      H1703   0.992       .  S
C1705      C1706   1.409       .  A
C1705      C1710   1.406       .  A
C1705      H1715   1.083       .  S
C1706      C1711   1.489       .  S
C1706      C1707   1.408       .  A
C1707      C1708   1.397       .  A
C1707      O1712   1.374       .  S
C1708      C1709   1.406       .  A
C1708      H1713   1.084       .  S
C1709      C1710   1.407       .  A
C1710      O1714   1.371       .  S
C1711      C1716   1.413       .  A
C1711      C1720   1.405       .  A
O1712      H1728   0.992       .  S
O1714      H1725   0.992       .  S
C1716      C1717   1.400       .  A
C1716      O1721   1.371       .  S
C1717      C1718   1.402       .  A
C1717      H1722   1.084       .  S
C1718      C1719   1.410       .  A
C1719      C1720   1.402       .  A
C1719      O1723   1.372       .  S
C1720      H1724   1.083       .  S
O1721      H1726   0.992       .  S
O1723      H1727   0.992       .  S
C1729      C1730   1.401       .  A
C1729      C1734   1.401       .  A
C1729      H1739   1.084       .  S
C1730      C1735   1.476       .  S
C1730      C1731   1.405       .  A
C1731      C1732   1.397       .  A
C1731      O1736   1.373       .  S
C1732      C1733   1.406       .  A
C1732      H1737   1.083       .  S
C1733      C1734   1.417       .  A
C1734      O1738   1.372       .  S
C1735      C1740   1.406       .  A
C1735      C1744   1.402       .  A
O1736      H1752   0.992       .  S
O1738      H1749   0.992       .  S
C1740      C1741   1.396       .  A
C1740      O1745   1.373       .  S
C1741      C1742   1.404       .  A
C1741      H1746   1.083       .  S
C1742      C1743   1.414       .  A
C1743      C1744   1.401       .  A
C1743      O1747   1.372       .  S
C1744      H1748   1.084       .  S
O1745      H1750   0.992       .  S
O1747      H1751   0.992       .  S
C1753      C1754   1.402       .  A
C1753      C1758   1.402       .  A
C1753      H1763   1.084       .  S
C1754      C1759   1.480       .  S
C1754      C1755   1.409       .  A
C1755      C1756   1.401       .  A
C1755      O1760   1.372       .  S
C1756      C1757   1.403       .  A
C1756      H1761   1.084       .  S
C1757      C1758   1.410       .  A
C1758      O1762   1.373       .  S
C1759      C1764   1.405       .  A
C1759      C1768   1.406       .  A
O1760      H1776   0.992       .  S
O1762      H1773   0.992       .  S
C1764      C1765   1.403       .  A
C1764      O1769   1.373       .  S
C1765      C1766   1.406       .  A
C1765      H1770   1.084       .  S
C1766      C1767   1.403       .  A
C1767      C1768   1.400       .  A
C1767      O1771   1.371       .  S
C1768      H1772   1.084       .  S
O1769      H1774   0.992       .  S
O1771      H1775   0.992       .  S
C1777      C1778   1.405       .  A
C1777      C1782   1.401       .  A
C1777      H1787   1.083       .  S
C1778      C1783   1.492       .  S
C1778      C1779   1.413       .  A
C1779      C1780   1.404       .  A
C1779      O1784   1.371       .  S
C1780      C1781   1.401       .  A
C1780      H1785   1.084       .  S
C1781      C1782   1.409       .  A
C1782      O1786   1.372       .  S
C1783      C1788   1.412       .  A
C1783      C1792   1.404       .  A
O1784      H1800   0.992       .  S
O1786      H1797   0.992       .  S
C1788      C1789   1.410       .  A
C1788      O1793   1.372       .  S
C1789      C1790   1.405       .  A
C1789      H1794   1.083       .  S
C1790      C1791   1.409       .  A
C1791      C1792   1.399       .  A
C1791      O1795   1.372       .  S
C1792      H1796   1.084       .  S
O1793      H1798   0.992       .  S
O1795      H1799   0.992       .  S
C1801      C1802   1.406       .  A
C1801      C1806   1.402       .  A
C1801      H1811   1.083       .  S
C1802      C1807   1.487       .  S
C1802      C1803   1.408       .  A
C1803      C1804   1.396       .  A
C1803      O1808   1.372       .  S
C1804      C1805   1.407       .  A
C1804      H1809   1.083       .  S
C1805      C1806   1.411       .  A
C1806      O1810   1.372       .  S
C1807      C1812   1.411       .  A
C1807      C1816   1.404       .  A
O1808      H1824   0.992       .  S
O1810      H1821   0.992       .  S
C1812      C1813   1.399       .  A
C1812      O1817   1.372       .  S
C1813      C1814   1.404       .  A
C1813      H1818   1.084       .  S
C1814      C1815   1.410       .  A
C1815      C1816   1.399       .  A
C1815      O1819   1.372       .  S
C1816      H1820   1.083       .  S
O1817      H1822   0.992       .  S
O1819      H1823   0.992       .  S
C1825      C1826   1.404       .  A
C1825      C1830   1.400       .  A
C1825      H1835   1.083       .  S
C1826      C1831   1.489       .  S
C1826      C1827   1.410       .  A
C1827      C1828   1.404       .  A
C1827      O1832   1.372       .  S
C1828      C1829   1.407       .  A
C1828      H1833   1.083       .  S
C1829      C1830   1.412       .  A
C1830      O1834   1.372       .  S
C1831      C1836   1.409   1_655  A
C1831      C1840   1.403       .  A
O1832      H1848   0.992       .  S
O1834      H1845   0.992       .  S
C1836      C1837   1.402       .  A
C1836      O1841   1.372       .  S
C1837      C1838   1.406       .  A
C1837      H1842   1.083       .  S
C1838      C1839   1.416       .  A
C1839      C1840   1.403   1_455  A
C1839      O1843   1.371       .  S
C1840      H1844   1.083       .  S
O1841      H1846   0.992       .  S
O1843      H1847   0.992       .  S
C1849      C1850   1.403       .  A
C1849      C1854   1.398       .  A
C1849      H1859   1.084       .  S
C1850      C1855   1.481       .  S
C1850      C1851   1.410       .  A
C1851      C1852   1.403       .  A
C1851      O1856   1.371       .  S
C1852      C1853   1.403       .  A
C1852      H1857   1.084       .  S
C1853      C1854   1.407       .  A
C1854      O1858   1.372       .  S
C1855      C1860   1.407       .  A
C1855      C1864   1.402       .  A
O1856      H1872   0.992       .  S
O1858      H1869   0.992       .  S
C1860      C1861   1.405       .  A
C1860      O1865   1.372       .  S
C1861      C1862   1.404       .  A
C1861      H1866   1.079       .  S
C1862      C1863   1.410       .  A
C1863      C1864   1.398       .  A
C1863      O1867   1.372       .  S
C1864      H1868   1.084       .  S
O1865      H1870   0.992       .  S
O1867      H1871   0.992       .  S
C1873      C1874   1.402       .  A
C1873      C1878   1.400       .  A
C1873      H1883   1.083       .  S
C1874      C1879   1.484       .  S
C1874      C1875   1.409       .  A
C1875      C1876   1.399       .  A
C1875      O1880   1.371       .  S
C1876      C1877   1.405       .  A
C1876      H1881   1.083       .  S
C1877      C1878   1.414       .  A
C1878      O1882   1.372       .  S
C1879      C1884   1.407       .  A
C1879      C1888   1.404       .  A
O1880      H1896   0.992       .  S
O1882      H1893   0.992       .  S
C1884      C1885   1.401       .  A
C1884      O1889   1.372       .  S
C1885      C1886   1.407       .  A
C1885      H1890   1.084       .  S
C1886      C1887   1.412       .  A
C1887      C1888   1.400       .  A
C1887      O1891   1.371       .  S
C1888      H1892   1.084       .  S
O1889      H1894   0.992       .  S
O1891      H1895   0.992       .  S
C1897      C1898   1.402       .  A
C1897      C1902   1.401       .  A
C1897      H1907   1.083       .  S
C1898      C1903   1.484       .  S
C1898      C1899   1.408       .  A
C1899      C1900   1.401       .  A
C1899      O1904   1.372       .  S
C1900      C1901   1.407       .  A
C1900      H1905   1.084       .  S
C1901      C1902   1.415       .  A
C1902      O1906   1.372       .  S
C1903      C1908   1.405       .  A
C1903      C1912   1.404       .  A
O1904      H1920   0.992       .  S
O1906      H1917   0.992       .  S
C1908      C1909   1.400       .  A
C1908      O1913   1.372       .  S
C1909      C1910   1.409       .  A
C1909      H1914   1.083       .  S
C1910      C1911   1.414       .  A
C1911      C1912   1.402       .  A
C1911      O1915   1.372       .  S
C1912      H1916   1.084       .  S
O1913      H1918   0.992       .  S
O1915      H1919   0.992       .  S
C1921      C1922   1.401       .  A
C1921      C1926   1.398       .  A
C1921      H1931   1.084       .  S
C1922      C1927   1.473       .  S
C1922      C1923   1.405       .  A
C1923      C1924   1.394       .  A
C1923      O1928   1.372       .  S
C1924      C1925   1.408       .  A
C1924      H1929   1.083       .  S
C1925      C1926   1.415       .  A
C1926      O1930   1.372       .  S
C1927      C1932   1.405       .  A
C1927      C1936   1.400       .  A
O1928      H1944   0.992       .  S
O1930      H1941   0.992       .  S
C1932      C1933   1.395       .  A
C1932      O1937   1.372       .  S
C1933      C1934   1.407       .  A
C1933      H1938   1.083       .  S
C1934      C1935   1.413       .  A
C1935      C1936   1.400       .  A
C1935      O1939   1.371       .  S
C1936      H1940   1.084       .  S
O1937      H1942   0.992       .  S
O1939      H1943   0.991       .  S
C1945      C1946   1.403       .  A
C1945      C1950   1.397       .  A
C1945      H1955   1.084       .  S
C1946      C1951   1.477       .  S
C1946      C1947   1.406       .  A
C1947      C1948   1.403       .  A
C1947      O1952   1.372       .  S
C1948      C1949   1.404       .  A
C1948      H1953   1.084       .  S
C1949      C1950   1.406       .  A
C1950      O1954   1.372       .  S
C1951      C1956   1.410       .  A
C1951      C1960   1.400       .  A
O1952      H1968   0.992       .  S
O1954      H1965   0.992       .  S
C1956      C1957   1.401       .  A
C1956      O1961   1.372       .  S
C1957      C1958   1.401       .  A
C1957      H1962   1.084       .  S
C1958      C1959   1.410       .  A
C1959      C1960   1.400       .  A
C1959      O1963   1.372       .  S
C1960      H1964   1.084       .  S
O1961      H1966   0.992       .  S
O1963      H1967   0.991       .  S
C1969      C1970   1.400       .  A
C1969      C1974   1.401       .  A
C1969      H1979   1.084       .  S
C1970      C1975   1.475       .  S
C1970      C1971   1.409       .  A
C1971      C1972   1.400       .  A
C1971      O1976   1.372       .  S
C1972      C1973   1.401       .  A
C1972      H1977   1.084       .  S
C1973      C1974   1.409       .  A
C1974      O1978   1.372       .  S
C1975      C1980   1.405       .  A
C1975      C1984   1.404       .  A
O1976      H1992   0.992       .  S
O1978      H1989   0.992       .  S
C1980      C1981   1.400       .  A
C1980      O1985   1.371       .  S
C1981      C1982   1.405       .  A
C1981      H1986   1.084       .  S
C1982      C1983   1.405       .  A
C1983      C1984   1.400       .  A
C1983      O1987   1.372       .  S
C1984      H1988   1.084       .  S
O1985      H1990   0.992       .  S
O1987      H1991   0.992       .  S
C1993      C1994   1.401       .  A
C1993      C1998   1.398       .  A
C1993      H2003   1.084       .  S
C1994      C1999   1.477       .  S
C1994      C1995   1.406       .  A
C1995      C1996   1.400       .  A
C1995      O2000   1.371       .  S
C1996      C1997   1.407       .  A
C1996      H2001   1.082       .  S
C1997      C1998   1.413       .  A
C1998      O2002   1.371       .  S
C1999      C2004   1.405       .  A
C1999      C2008   1.399       .  A
O2000      H2016   0.992       .  S
O2002      H2013   0.992       .  S
C2004      C2005   1.401       .  A
C2004      O2009   1.372       .  S
C2005      C2006   1.408       .  A
C2005      H2010   1.081       .  S
C2006      C2007   1.417       .  A
C2007      C2008   1.398       .  A
C2007      O2011   1.371       .  S
C2008      H2012   1.084       .  S
O2009      H2014   0.992       .  S
O2011      H2015   0.992       .  S
C2017      C2018   1.401       .  A
C2017      C2022   1.405       .  A
C2017      H2027   1.083       .  S
C2018      C2023   1.478       .  S
C2018      C2019   1.406       .  A
C2019      C2020   1.398       .  A
C2019      O2024   1.372       .  S
C2020      C2021   1.406       .  A
C2020      H2025   1.084       .  S
C2021      C2022   1.413       .  A
C2022      O2026   1.372       .  S
C2023      C2028   1.405       .  A
C2023      C2032   1.404       .  A
O2024      H2040   0.992       .  S
O2026      H2037   0.992       .  S
C2028      C2029   1.403       .  A
C2028      O2033   1.371       .  S
C2029      C2030   1.406       .  A
C2029      H2034   1.084       .  S
C2030      C2031   1.406       .  A
C2031      C2032   1.400       .  A
C2031      O2035   1.371       .  S
C2032      H2036   1.084       .  S
O2033      H2038   0.991       .  S
O2035      H2039   0.992       .  S
C2041      C2042   1.404       .  A
C2041      C2046   1.401       .  A
C2041      H2051   1.083       .  S
C2042      C2047   1.491       .  S
C2042      C2043   1.412       .  A
C2043      C2044   1.401       .  A
C2043      O2048   1.372       .  S
C2044      C2045   1.405       .  A
C2044      H2049   1.084       .  S
C2045      C2046   1.413       .  A
C2046      O2050   1.372       .  S
C2047      C2052   1.410       .  A
C2047      C2056   1.406       .  A
O2048      H2064   0.992       .  S
O2050      H2061   0.992       .  S
C2052      C2053   1.400       .  A
C2052      O2057   1.372       .  S
C2053      C2054   1.406       .  A
C2053      H2058   1.084       .  S
C2054      C2055   1.412       .  A
C2055      C2056   1.401       .  A
C2055      O2059   1.372       .  S
C2056      H2060   1.083       .  S
O2057      H2062   0.992       .  S
O2059      H2063   0.992       .  S
C2065      C2066   1.400       .  A
C2065      C2070   1.400       .  A
C2065      H2075   1.084       .  S
C2066      C2071   1.482       .  S
C2066      C2067   1.410       .  A
C2067      C2068   1.405       .  A
C2067      O2072   1.371       .  S
C2068      C2069   1.403       .  A
C2068      H2073   1.084       .  S
C2069      C2070   1.410       .  A
C2070      O2074   1.372       .  S
C2071      C2076   1.407       .  A
C2071      C2080   1.403       .  A
O2072      H2088   0.991       .  S
O2074      H2085   0.992       .  S
C2076      C2077   1.405       .  A
C2076      O2081   1.371       .  S
C2077      C2078   1.406       .  A
C2077      H2082   1.084       .  S
C2078      C2079   1.407       .  A
C2079      C2080   1.399       .  A
C2079      O2083   1.372       .  S
C2080      H2084   1.084       .  S
O2081      H2086   0.992       .  S
O2083      H2087   0.992       .  S
C2089      C2090   1.399       .  A
C2089      C2094   1.398   1_455  A
C2089      H2099   1.084       .  S
C2090      C2095   1.470       .  S
C2090      C2091   1.401       .  A
C2091      C2092   1.399       .  A
C2091      O2096   1.371       .  S
C2092      C2093   1.411   1_455  A
C2092      H2097   1.083       .  S
C2093      C2094   1.414       .  A
C2094      O2098   1.371       .  S
C2095      C2100   1.403       .  A
C2095      C2104   1.398       .  A
O2096      H2112   0.992       .  S
O2098      H2109   0.992       .  S
C2100      C2101   1.399       .  A
C2100      O2105   1.372   1_455  S
C2101      C2102   1.408       .  A
C2101      H2106   1.082       .  S
C2102      C2103   1.415       .  A
C2103      C2104   1.399       .  A
C2103      O2107   1.372       .  S
C2104      H2108   1.084       .  S
O2105      H2110   0.992       .  S
O2107      H2111   0.992       .  S
C2113      C2114   1.402       .  A
C2113      C2118   1.399       .  A
C2113      H2123   1.084       .  S
C2114      C2119   1.481       .  S
C2114      C2115   1.407       .  A
C2115      C2116   1.401       .  A
C2115      O2120   1.372       .  S
C2116      C2117   1.407       .  A
C2116      H2121   1.083       .  S
C2117      C2118   1.412       .  A
C2118      O2122   1.372       .  S
C2119      C2124   1.407       .  A
C2119      C2128   1.400       .  A
O2120      H2136   0.992       .  S
O2122      H2133   0.992       .  S
C2124      C2125   1.401       .  A
C2124      O2129   1.372       .  S
C2125      C2126   1.407       .  A
C2125      H2130   1.083       .  S
C2126      C2127   1.417       .  A
C2127      C2128   1.402       .  A
C2127      O2131   1.371       .  S
C2128      H2132   1.084       .  S
O2129      H2134   0.992       .  S
O2131      H2135   0.992       .  S
C2137      C2138   1.403       .  A
C2137      C2142   1.405       .  A
C2137      H2147   1.083       .  S
C2138      C2143   1.482       .  S
C2138      C2139   1.408       .  A
C2139      C2140   1.398       .  A
C2139      O2144   1.372       .  S
C2140      C2141   1.403       .  A
C2140      H2145   1.084       .  S
C2141      C2142   1.411       .  A
C2142      O2146   1.371       .  S
C2143      C2148   1.407       .  A
C2143      C2152   1.402       .  A
O2144      H2160   0.992       .  S
O2146      H2157   0.991       .  S
C2148      C2149   1.406       .  A
C2148      O2153   1.371       .  S
C2149      C2150   1.407       .  A
C2149      H2154   1.084       .  S
C2150      C2151   1.408       .  A
C2151      C2152   1.397       .  A
C2151      O2155   1.372       .  S
C2152      H2156   1.084       .  S
O2153      H2158   0.992       .  S
O2155      H2159   0.992       .  S
C2161      C2162   1.406       .  A
C2161      C2166   1.404       .  A
C2161      H2171   1.083       .  S
C2162      C2167   1.489       .  S
C2162      C2163   1.407       .  A
C2163      C2164   1.398       .  A
C2163      O2168   1.372       .  S
C2164      C2165   1.409       .  A
C2164      H2169   1.083       .  S
C2165      C2166   1.412       .  A
C2166      O2170   1.372       .  S
C2167      C2172   1.407       .  A
C2167      C2176   1.407       .  A
O2168      H2184   0.992       .  S
O2170      H2181   0.992       .  S
C2172      C2173   1.401       .  A
C2172      O2177   1.372       .  S
C2173      C2174   1.407       .  A
C2173      H2178   1.084       .  S
C2174      C2175   1.410       .  A
C2175      C2176   1.403       .  A
C2175      O2179   1.371       .  S
C2176      H2180   1.083       .  S
O2177      H2182   0.992       .  S
O2179      H2183   0.992       .  S
C2185      C2186   1.406       .  A
C2185      C2190   1.401       .  A
C2185      H2195   1.083       .  S
C2186      C2191   1.487       .  S
C2186      C2187   1.407       .  A
C2187      C2188   1.398       .  A
C2187      O2192   1.372       .  S
C2188      C2189   1.410       .  A
C2188      H2193   1.083       .  S
C2189      C2190   1.411       .  A
C2190      O2194   1.371       .  S
C2191      C2196   1.408       .  A
C2191      C2200   1.404       .  A
O2192      H2208   0.992       .  S
O2194      H2205   0.992       .  S
C2196      C2197   1.399       .  A
C2196      O2201   1.373       .  S
C2197      C2198   1.407       .  A
C2197      H2202   1.084       .  S
C2198      C2199   1.414       .  A
C2199      C2200   1.402       .  A
C2199      O2203   1.372       .  S
C2200      H2204   1.083       .  S
O2201      H2206   0.992       .  S
O2203      H2207   0.992       .  S
C2209      C2210   1.402       .  A
C2209      C2214   1.396       .  A
C2209      H2219   1.084       .  S
C2210      C2215   1.472       .  S
C2210      C2211   1.404       .  A
C2211      C2212   1.401       .  A
C2211      O2216   1.371       .  S
C2212      C2213   1.405       .  A
C2212      H2217   1.084       .  S
C2213      C2214   1.406       .  A
C2214      O2218   1.372       .  S
C2215      C2220   1.406       .  A
C2215      C2224   1.400       .  A
O2216      H2232   0.992       .  S
O2218      H2229   0.992       .  S
C2220      C2221   1.397       .  A
C2220      O2225   1.372       .  S
C2221      C2222   1.401       .  A
C2221      H2226   1.084       .  S
C2222      C2223   1.411       .  A
C2223      C2224   1.401       .  A
C2223      O2227   1.372       .  S
C2224      H2228   1.084       .  S
O2225      H2230   0.992       .  S
O2227      H2231   0.991       .  S
C2233      C2234   1.403       .  A
C2233      C2238   1.399       .  A
C2233      H2243   1.083       .  S
C2234      C2239   1.480       .  S
C2234      C2235   1.405       .  A
C2235      C2236   1.398       .  A
C2235      O2240   1.372       .  S
C2236      C2237   1.410       .  A
C2236      H2241   1.084       .  S
C2237      C2238   1.411       .  A
C2238      O2242   1.371       .  S
C2239      C2244   1.403       .  A
C2239      C2248   1.406       .  A
O2240      H2256   0.992       .  S
O2242      H2253   0.992       .  S
C2244      C2245   1.394       .  A
C2244      O2249   1.372       .  S
C2245      C2246   1.408       .  A
C2245      H2250   1.083       .  S
C2246      C2247   1.411       .  A
C2247      C2248   1.405       .  A
C2247      O2251   1.371       .  S
C2248      H2252   1.084       .  S
O2249      H2254   0.992       .  S
O2251      H2255   0.992       .  S
C2257      C2258   1.401       .  A
C2257      C2262   1.399       .  A
C2257      H2267   1.084       .  S
C2258      C2263   1.486       .  S
C2258      C2259   1.409       .  A
C2259      C2260   1.404       .  A
C2259      O2264   1.372       .  S
C2260      C2261   1.408       .  A
C2260      H2265   1.083       .  S
C2261      C2262   1.415       .  A
C2262      O2266   1.372       .  S
C2263      C2268   1.409       .  A
C2263      C2272   1.401       .  A
O2264      H2280   0.992       .  S
O2266      H2277   0.992       .  S
C2268      C2269   1.403       .  A
C2268      O2273   1.372       .  S
C2269      C2270   1.407       .  A
C2269      H2274   1.083       .  S
C2270      C2271   1.416       .  A
C2271      C2272   1.401       .  A
C2271      O2275   1.371       .  S
C2272      H2276   1.084       .  S
O2273      H2278   0.992       .  S
O2275      H2279   0.992       .  S
C2281      C2282   1.403       .  A
C2281      C2286   1.395       .  A
C2281      H2291   1.084       .  S
C2282      C2287   1.478       .  S
C2282      C2283   1.410       .  A
C2283      C2284   1.399       .  A
C2283      O2288   1.372       .  S
C2284      C2285   1.403       .  A
C2284      H2289   1.084       .  S
C2285      C2286   1.407       .  A
C2286      O2290   1.372       .  S
C2287      C2292   1.410       .  A
C2287      C2296   1.404       .  A
O2288      H2304   0.992       .  S
O2290      H2301   0.992       .  S
C2292      C2293   1.396       .  A
C2292      O2297   1.372       .  S
C2293      C2294   1.399   1_545  A
C2293      H2298   1.084       .  S
C2294      C2295   1.406       .  A
C2295      C2296   1.397   1_565  A
C2295      O2299   1.372       .  S
C2296      H2300   1.083   1_545  S
O2297      H2302   0.992       .  S
O2299      H2303   0.992       .  S
C2305      C2306   1.400       .  A
C2305      C2310   1.395       .  A
C2305      H2315   1.084       .  S
C2306      C2311   1.486       .  S
C2306      C2307   1.411       .  A
C2307      C2308   1.411       .  A
C2307      O2312   1.371       .  S
C2308      C2309   1.405       .  A
C2308      H2313   1.083       .  S
C2309      C2310   1.411       .  A
C2310      O2314   1.373       .  S
C2311      C2316   1.409       .  A
C2311      C2320   1.405       .  A
O2312      H2328   0.992       .  S
O2314      H2325   0.992       .  S
C2316      C2317   1.402       .  A
C2316      O2321   1.372       .  S
C2317      C2318   1.405       .  A
C2317      H2322   1.084   1_455  S
C2318      C2319   1.409       .  A
C2319      C2320   1.405       .  A
C2319      O2323   1.371       .  S
C2320      H2324   1.083       .  S
O2321      H2326   0.992       .  S
O2323      H2327   0.992       .  S
C2329      C2330   1.404       .  A
C2329      C2334   1.407       .  A
C2329      H2339   1.083       .  S
C2330      C2335   1.480       .  S
C2330      C2331   1.406       .  A
C2331      C2332   1.397       .  A
C2331      O2336   1.373   1_565  S
C2332      C2333   1.405       .  A
C2332      H2337   1.084       .  S
C2333      C2334   1.410       .  A
C2334      O2338   1.370       .  S
C2335      C2340   1.408       .  A
C2335      C2344   1.400   1_565  A
O2336      H2352   0.992       .  S
O2338      H2349   0.992       .  S
C2340      C2341   1.405   1_565  A
C2340      O2345   1.372       .  S
C2341      C2342   1.403       .  A
C2341      H2346   1.084   1_545  S
C2342      C2343   1.411       .  A
C2343      C2344   1.399       .  A
C2343      O2347   1.372       .  S
C2344      H2348   1.084       .  S
O2345      H2350   0.992       .  S
O2347      H2351   0.991       .  S
C2353      C2354   1.403       .  A
C2353      C2358   1.397       .  A
C2353      H2363   1.084       .  S
C2354      C2359   1.480       .  S
C2354      C2355   1.405       .  A
C2355      C2356   1.404       .  A
C2355      O2360   1.371       .  S
C2356      C2357   1.408       .  A
C2356      H2361   1.084       .  S
C2357      C2358   1.409       .  A
C2358      O2362   1.372       .  S
C2359      C2364   1.405       .  A
C2359      C2368   1.403       .  A
O2360      H2376   0.992       .  S
O2362      H2373   0.992       .  S
C2364      C2365   1.405       .  A
C2364      O2369   1.371       .  S
C2365      C2366   1.409       .  A
C2365      H2370   1.084       .  S
C2366      C2367   1.410       .  A
C2367      C2368   1.398       .  A
C2367      O2371   1.372       .  S
C2368      H2372   1.084       .  S
O2369      H2374   0.992       .  S
O2371      H2375   0.992       .  S
C2377      C2378   1.401       .  A
C2377      C2382   1.398   1_455  A
C2377      H2387   1.084       .  S
C2378      C2383   1.485       .  S
C2378      C2379   1.407       .  A
C2379      C2380   1.407   1_455  A
C2379      O2384   1.371       .  S
C2380      C2381   1.408       .  A
C2380      H2385   1.083       .  S
C2381      C2382   1.417       .  A
C2382      O2386   1.372       .  S
C2383      C2388   1.410       .  A
C2383      C2392   1.404       .  A
O2384      H2400   0.992       .  S
O2386      H2397   0.992       .  S
C2388      C2389   1.404       .  A
C2388      O2393   1.372   1_556  S
C2389      C2390   1.403       .  A
C2389      H2394   1.084   1_556  S
C2390      C2391   1.407       .  A
C2391      C2392   1.401       .  A
C2391      O2395   1.372       .  S
C2392      H2396   1.084       .  S
O2393      H2398   0.992       .  S
O2395      H2399   0.992       .  S
C2401      C2402   1.401   1_554  A
C2401      C2406   1.399       .  A
C2401      H2411   1.084       .  S
C2402      C2407   1.478       .  S
C2402      C2403   1.407       .  A
C2403      C2404   1.402   1_545  A
C2403      O2408   1.371       .  S
C2404      C2405   1.404       .  A
C2404      H2409   1.083       .  S
C2405      C2406   1.411   1_566  A
C2406      O2410   1.372   1_545  S
C2407      C2412   1.408   1_556  A
C2407      C2416   1.400       .  A
O2408      H2424   0.992       .  S
O2410      H2421   0.992       .  S
C2412      C2413   1.406       .  A
C2412      O2417   1.371       .  S
C2413      C2414   1.404   1_554  A
C2413      H2418   1.084       .  S
C2414      C2415   1.409       .  A
C2415      C2416   1.395       .  A
C2415      O2419   1.372       .  S
C2416      H2420   1.084       .  S
O2417      H2422   0.992       .  S
O2419      H2423   0.992       .  S
C2425      C2426   1.399       .  A
C2425      C2430   1.401       .  A
C2425      H2435   1.084       .  S
C2426      C2431   1.473       .  S
C2426      C2427   1.403       .  A
C2427      C2428   1.398       .  A
C2427      O2432   1.372       .  S
C2428      C2429   1.410       .  A
C2428      H2433   1.083       .  S
C2429      C2430   1.416       .  A
C2430      O2434   1.372       .  S
C2431      C2436   1.403       .  A
C2431      C2440   1.399       .  A
O2432      H2448   0.992       .  S
O2434      H2445   0.992       .  S
C2436      C2437   1.399       .  A
C2436      O2441   1.372       .  S
C2437      C2438   1.409       .  A
C2437      H2442   1.082       .  S
C2438      C2439   1.415       .  A
C2439      C2440   1.400       .  A
C2439      O2443   1.372       .  S
C2440      H2444   1.084       .  S
O2441      H2446   0.992       .  S
O2443      H2447   0.992       .  S
C2449      C2450   1.404       .  A
C2449      C2454   1.403       .  A
C2449      H2459   1.084       .  S
C2450      C2455   1.487       .  S
C2450      C2451   1.409       .  A
C2451      C2452   1.404       .  A
C2451      O2456   1.373       .  S
C2452      C2453   1.404       .  A
C2452      H2457   1.084       .  S
C2453      C2454   1.408       .  A
C2454      O2458   1.372       .  S
C2455      C2460   1.408   1_565  A
C2455      C2464   1.405       .  A
O2456      H2472   0.992   1_565  S
O2458      H2469   0.991       .  S
C2460      C2461   1.398       .  A
C2460      O2465   1.372       .  S
C2461      C2462   1.407       .  A
C2461      H2466   1.083       .  S
C2462      C2463   1.415   1_545  A
C2463      C2464   1.408       .  A
C2463      O2467   1.371       .  S
C2464      H2468   1.083       .  S
O2465      H2470   0.992       .  S
O2467      H2471   0.992       .  S
C2473      C2474   1.403       .  A
C2473      C2478   1.402   1_655  A
C2473      H2483   1.084       .  S
C2474      C2479   1.481       .  S
C2474      C2475   1.406       .  A
C2475      C2476   1.400   1_655  A
C2475      O2480   1.372       .  S
C2476      C2477   1.408       .  A
C2476      H2481   1.083       .  S
C2477      C2478   1.413       .  A
C2478      O2482   1.371       .  S
C2479      C2484   1.406       .  A
C2479      C2488   1.403       .  A
O2480      H2496   0.992       .  S
O2482      H2493   0.992       .  S
C2484      C2485   1.399       .  A
C2484      O2489   1.372       .  S
C2485      C2486   1.409       .  A
C2485      H2490   1.083       .  S
C2486      C2487   1.414       .  A
C2487      C2488   1.401       .  A
C2487      O2491   1.372       .  S
C2488      H2492   1.084       .  S
O2489      H2494   0.992       .  S
O2491      H2495   0.992       .  S
C2497      C2498   1.404       .  A
C2497      C2502   1.397       .  A
C2497      H2507   1.083       .  S
C2498      C2503   1.489       .  S
C2498      C2499   1.411       .  A
C2499      C2500   1.405       .  A
C2499      O2504   1.371       .  S
C2500      C2501   1.405       .  A
C2500      H2505   1.083       .  S
C2501      C2502   1.410       .  A
C2502      O2506   1.373       .  S
C2503      C2508   1.413       .  A
C2503      C2512   1.407       .  A
O2504      H2520   0.992       .  S
O2506      H2517   0.992       .  S
C2508      C2509   1.400       .  A
C2508      O2513   1.371       .  S
C2509      C2510   1.400       .  A
C2509      H2514   1.084       .  S
C2510      C2511   1.404       .  A
C2511      C2512   1.400       .  A
C2511      O2515   1.372       .  S
C2512      H2516   1.083       .  S
O2513      H2518   0.991       .  S
O2515      H2519   0.992       .  S
C2521      C2522   1.401       .  A
C2521      C2526   1.398       .  A
C2521      H2531   1.084       .  S
C2522      C2527   1.481       .  S
C2522      C2523   1.412       .  A
C2523      C2524   1.402       .  A
C2523      O2528   1.372       .  S
C2524      C2525   1.400       .  A
C2524      H2529   1.084       .  S
C2525      C2526   1.409       .  A
C2526      O2530   1.372       .  S
C2527      C2532   1.410       .  A
C2527      C2536   1.401       .  A
O2528      H2544   0.992       .  S
O2530      H2541   0.992       .  S
C2532      C2533   1.400       .  A
C2532      O2537   1.372       .  S
C2533      C2534   1.402       .  A
C2533      H2538   1.084       .  S
C2534      C2535   1.412       .  A
C2535      C2536   1.400       .  A
C2535      O2539   1.372       .  S
C2536      H2540   1.084       .  S
O2537      H2542   0.992       .  S
O2539      H2543   0.991       .  S
C2545      C2546   1.402       .  A
C2545      C2550   1.399       .  A
C2545      H2555   1.084       .  S
C2546      C2551   1.486       .  S
C2546      C2547   1.410       .  A
C2547      C2548   1.407       .  A
C2547      O2552   1.373       .  S
C2548      C2549   1.405       .  A
C2548      H2553   1.083       .  S
C2549      C2550   1.411       .  A
C2550      O2554   1.372       .  S
C2551      C2556   1.408   1_545  A
C2551      C2560   1.408   1_545  A
O2552      H2568   0.992   1_556  S
O2554      H2565   0.992       .  S
C2556      C2557   1.396       .  A
C2556      O2561   1.372   1_566  S
C2557      C2558   1.402       .  A
C2557      H2562   1.084   1_556  S
C2558      C2559   1.407       .  A
C2559      C2560   1.407       .  A
C2559      O2563   1.371       .  S
C2560      H2564   1.083       .  S
O2561      H2566   0.992       .  S
O2563      H2567   0.992       .  S
C2569      C2570   1.399       .  A
C2569      C2574   1.399       .  A
C2569      H2579   1.084       .  S
C2570      C2575   1.479       .  S
C2570      C2571   1.408       .  A
C2571      C2572   1.402       .  A
C2571      O2576   1.373       .  S
C2572      C2573   1.405       .  A
C2572      H2577   1.084       .  S
C2573      C2574   1.415       .  A
C2574      O2578   1.372       .  S
C2575      C2580   1.405       .  A
C2575      C2584   1.402       .  A
O2576      H2592   0.992       .  S
O2578      H2589   0.992       .  S
C2580      C2581   1.398       .  A
C2580      O2585   1.373       .  S
C2581      C2582   1.409       .  A
C2581      H2586   1.083       .  S
C2582      C2583   1.414       .  A
C2583      C2584   1.402       .  A
C2583      O2587   1.371       .  S
C2584      H2588   1.084       .  S
O2585      H2590   0.992       .  S
O2587      H2591   0.992       .  S
C2593      C2594   1.401   1_554  A
C2593      C2598   1.401       .  A
C2593      H2603   1.084       .  S
C2594      C2599   1.489       .  S
C2594      C2595   1.410       .  A
C2595      C2596   1.408       .  A
C2595      O2600   1.372       .  S
C2596      C2597   1.405       .  A
C2596      H2601   1.084       .  S
C2597      C2598   1.413   1_556  A
C2598      O2602   1.372       .  S
C2599      C2604   1.408       .  A
C2599      C2608   1.406   1_556  A
O2600      H2616   0.992       .  S
O2602      H2613   0.991       .  S
C2604      C2605   1.400       .  A
C2604      O2609   1.372       .  S
C2605      C2606   1.407       .  A
C2605      H2610   1.084       .  S
C2606      C2607   1.412       .  A
C2607      C2608   1.410   1_556  A
C2607      O2611   1.371   1_556  S
C2608      H2612   1.083       .  S
O2609      H2614   0.992       .  S
O2611      H2615   0.992       .  S
C2617      C2618   1.402       .  A
C2617      C2622   1.400       .  A
C2617      H2627   1.084       .  S
C2618      C2623   1.476       .  S
C2618      C2619   1.405       .  A
C2619      C2620   1.397       .  A
C2619      O2624   1.372       .  S
C2620      C2621   1.407       .  A
C2620      H2625   1.083       .  S
C2621      C2622   1.413       .  A
C2622      O2626   1.372       .  S
C2623      C2628   1.407       .  A
C2623      C2632   1.399       .  A
O2624      H2640   0.992       .  S
O2626      H2637   0.992       .  S
C2628      C2629   1.400       .  A
C2628      O2633   1.371       .  S
C2629      C2630   1.406       .  A
C2629      H2634   1.083       .  S
C2630      C2631   1.414       .  A
C2631      C2632   1.397       .  A
C2631      O2635   1.372       .  S
C2632      H2636   1.084       .  S
O2633      H2638   0.992       .  S
O2635      H2639   0.992       .  S
C2641      C2642   1.403       .  A
C2641      C2646   1.405       .  A
C2641      H2651   1.083       .  S
C2642      C2647   1.480       .  S
C2642      C2643   1.407       .  A
C2643      C2644   1.398       .  A
C2643      O2648   1.372       .  S
C2644      C2645   1.405       .  A
C2644      H2649   1.084       .  S
C2645      C2646   1.412       .  A
C2646      O2650   1.370       .  S
C2647      C2652   1.406       .  A
C2647      C2656   1.405       .  A
O2648      H2664   0.992       .  S
O2650      H2661   0.992       .  S
C2652      C2653   1.397       .  A
C2652      O2657   1.372       .  S
C2653      C2654   1.403       .  A
C2653      H2658   1.084       .  S
C2654      C2655   1.407       .  A
C2655      C2656   1.405       .  A
C2655      O2659   1.371       .  S
C2656      H2660   1.083       .  S
O2657      H2662   0.992       .  S
O2659      H2663   0.992       .  S
C2665      C2666   1.404       .  A
C2665      C2670   1.400       .  A
C2665      H2675   1.084       .  S
C2666      C2671   1.482       .  S
C2666      C2667   1.405       .  A
C2667      C2668   1.400       .  A
C2667      O2672   1.373       .  S
C2668      C2669   1.409       .  A
C2668      H2673   1.083       .  S
C2669      C2670   1.412       .  A
C2670      O2674   1.372       .  S
C2671      C2676   1.408       .  A
C2671      C2680   1.401       .  A
O2672      H2688   0.992       .  S
O2674      H2685   0.992       .  S
C2676      C2677   1.402       .  A
C2676      O2681   1.372       .  S
C2677      C2678   1.406       .  A
C2677      H2682   1.083       .  S
C2678      C2679   1.414       .  A
C2679      C2680   1.398       .  A
C2679      O2683   1.372       .  S
C2680      H2684   1.084       .  S
O2681      H2686   0.992       .  S
O2683      H2687   0.992       .  S
C2689      C2690   1.407       .  A
C2689      C2694   1.402       .  A
C2689      H2699   1.083       .  S
C2690      C2695   1.480       .  S
C2690      C2691   1.405       .  A
C2691      C2692   1.394   1_655  A
C2691      O2696   1.372       .  S
C2692      C2693   1.407       .  A
C2692      H2697   1.084       .  S
C2693      C2694   1.406   1_455  A
C2694      O2698   1.371       .  S
C2695      C2700   1.406       .  A
C2695      C2704   1.405       .  A
O2696      H2712   0.992       .  S
O2698      H2709   0.992   1_655  S
C2700      C2701   1.397       .  A
C2700      O2705   1.372       .  S
C2701      C2702   1.403       .  A
C2701      H2706   1.084       .  S
C2702      C2703   1.408       .  A
C2703      C2704   1.400       .  A
C2703      O2707   1.372   1_545  S
C2704      H2708   1.084       .  S
O2705      H2710   0.992       .  S
O2707      H2711   0.992       .  S
C2713      C2714   1.403       .  A
C2713      C2718   1.397       .  A
C2713      H2723   1.083       .  S
C2714      C2719   1.491       .  S
C2714      C2715   1.411       .  A
C2715      C2716   1.407       .  A
C2715      O2720   1.371       .  S
C2716      C2717   1.407       .  A
C2716      H2721   1.083       .  S
C2717      C2718   1.412       .  A
C2718      O2722   1.372       .  S
C2719      C2724   1.412       .  A
C2719      C2728   1.406       .  A
O2720      H2736   0.992       .  S
O2722      H2733   0.992       .  S
C2724      C2725   1.404       .  A
C2724      O2729   1.373       .  S
C2725      C2726   1.402       .  A
C2725      H2730   1.084   1_455  S
C2726      C2727   1.407       .  A
C2727      C2728   1.402       .  A
C2727      O2731   1.372       .  S
C2728      H2732   1.083       .  S
O2729      H2734   0.992       .  S
O2731      H2735   0.992       .  S
C2737      C2738   1.400       .  A
C2737      C2742   1.402       .  A
C2737      H2747   1.084       .  S
C2738      C2743   1.477       .  S
C2738      C2739   1.407       .  A
C2739      C2740   1.399       .  A
C2739      O2744   1.372       .  S
C2740      C2741   1.405       .  A
C2740      H2745   1.084       .  S
C2741      C2742   1.412       .  A
C2742      O2746   1.371       .  S
C2743      C2748   1.408       .  A
C2743      C2752   1.401       .  A
O2744      H2760   0.992       .  S
O2746      H2757   0.991       .  S
C2748      C2749   1.398       .  A
C2748      O2753   1.372       .  S
C2749      C2750   1.402       .  A
C2749      H2754   1.084       .  S
C2750      C2751   1.410       .  A
C2751      C2752   1.403       .  A
C2751      O2755   1.373       .  S
C2752      H2756   1.083       .  S
O2753      H2758   0.992       .  S
O2755      H2759   0.992       .  S
C2761      C2762   1.401       .  A
C2761      C2766   1.397   1_556  A
C2761      H2771   1.084   1_556  S
C2762      C2767   1.482       .  S
C2762      C2763   1.409       .  A
C2763      C2764   1.407       .  A
C2763      O2768   1.371       .  S
C2764      C2765   1.406       .  A
C2764      H2769   1.084       .  S
C2765      C2766   1.409   1_556  A
C2766      O2770   1.373       .  S
C2767      C2772   1.408       .  A
C2767      C2776   1.402       .  A
O2768      H2784   0.992       .  S
O2770      H2781   0.992       .  S
C2772      C2773   1.404       .  A
C2772      O2777   1.372       .  S
C2773      C2774   1.405       .  A
C2773      H2778   1.084       .  S
C2774      C2775   1.412       .  A
C2775      C2776   1.402       .  A
C2775      O2779   1.373       .  S
C2776      H2780   1.084       .  S
O2777      H2782   0.992   1_556  S
O2779      H2783   0.992       .  S
C2785      C2786   1.399       .  A
C2785      C2790   1.398       .  A
C2785      H2795   1.084   1_556  S
C2786      C2791   1.471       .  S
C2786      C2787   1.404       .  A
C2787      C2788   1.398       .  A
C2787      O2792   1.371       .  S
C2788      C2789   1.407       .  A
C2788      H2793   1.084       .  S
C2789      C2790   1.414       .  A
C2790      O2794   1.372   1_556  S
C2791      C2796   1.401       .  A
C2791      C2800   1.403       .  A
O2792      H2808   0.992       .  S
O2794      H2805   0.992       .  S
C2796      C2797   1.394       .  A
C2796      O2801   1.372   1_556  S
C2797      C2798   1.407       .  A
C2797      H2802   1.084   1_556  S
C2798      C2799   1.411       .  A
C2799      C2800   1.402       .  A
C2799      O2803   1.372       .  S
C2800      H2804   1.084       .  S
O2801      H2806   0.992       .  S
O2803      H2807   0.992       .  S
C2809      C2810   1.402       .  A
C2809      C2814   1.401       .  A
C2809      H2819   1.084       .  S
C2810      C2815   1.487       .  S
C2810      C2811   1.410       .  A
C2811      C2812   1.404       .  A
C2811      O2816   1.372       .  S
C2812      C2813   1.405       .  A
C2812      H2817   1.083       .  S
C2813      C2814   1.414       .  A
C2814      O2818   1.373       .  S
C2815      C2820   1.406   1_556  A
C2815      C2824   1.405       .  A
O2816      H2832   0.992       .  S
O2818      H2829   0.992       .  S
C2820      C2821   1.399       .  A
C2820      O2825   1.371       .  S
C2821      C2822   1.410   1_554  A
C2821      H2826   1.083       .  S
C2822      C2823   1.415       .  A
C2823      C2824   1.404       .  A
C2823      O2827   1.372       .  S
C2824      H2828   1.084       .  S
O2825      H2830   0.992       .  S
O2827      H2831   0.992       .  S
C2833      C2834   1.401       .  A
C2833      C2838   1.396       .  A
C2833      H2843   1.084       .  S
C2834      C2839   1.484   1_456  S
C2834      C2835   1.408       .  A
C2835      C2836   1.405       .  A
C2835      O2840   1.371   1_556  S
C2836      C2837   1.407       .  A
C2836      H2841   1.083       .  S
C2837      C2838   1.414       .  A
C2838      O2842   1.373       .  S
C2839      C2844   1.409       .  A
C2839      C2848   1.405   1_554  A
O2840      H2856   0.992       .  S
O2842      H2853   0.992       .  S
C2844      C2845   1.401       .  A
C2844      O2849   1.373       .  S
C2845      C2846   1.401   1_554  A
C2845      H2850   1.084       .  S
C2846      C2847   1.407       .  A
C2847      C2848   1.402       .  A
C2847      O2851   1.372       .  S
C2848      H2852   1.084       .  S
O2849      H2854   0.992       .  S
O2851      H2855   0.991       .  S
C2857      C2858   1.402       .  A
C2857      C2862   1.399       .  A
C2857      H2867   1.083       .  S
C2858      C2863   1.481       .  S
C2858      C2859   1.407       .  A
C2859      C2860   1.398       .  A
C2859      O2864   1.372       .  S
C2860      C2861   1.407       .  A
C2860      H2865   1.083       .  S
C2861      C2862   1.414       .  A
C2862      O2866   1.372       .  S
C2863      C2868   1.406       .  A
C2863      C2872   1.403       .  A
O2864      H2880   0.992       .  S
O2866      H2877   0.992       .  S
C2868      C2869   1.401       .  A
C2868      O2873   1.372       .  S
C2869      C2870   1.409       .  A
C2869      H2874   1.083       .  S
C2870      C2871   1.412       .  A
C2871      C2872   1.398       .  A
C2871      O2875   1.371       .  S
C2872      H2876   1.084       .  S
O2873      H2878   0.992       .  S
O2875      H2879   0.992       .  S
C2881      C2882   1.401       .  A
C2881      C2886   1.403       .  A
C2881      H2891   1.083       .  S
C2882      C2887   1.478       .  S
C2882      C2883   1.407       .  A
C2883      C2884   1.399       .  A
C2883      O2888   1.372       .  S
C2884      C2885   1.403       .  A
C2884      H2889   1.084       .  S
C2885      C2886   1.413       .  A
C2886      O2890   1.372       .  S
C2887      C2892   1.407       .  A
C2887      C2896   1.400       .  A
O2888      H2904   0.992       .  S
O2890      H2901   0.992       .  S
C2892      C2893   1.398       .  A
C2892      O2897   1.372       .  S
C2893      C2894   1.404       .  A
C2893      H2898   1.084       .  S
C2894      C2895   1.414       .  A
C2895      C2896   1.404       .  A
C2895      O2899   1.371       .  S
C2896      H2900   1.083       .  S
O2897      H2902   0.992       .  S
O2899      H2903   0.992       .  S
C2905      C2906   1.406       .  A
C2905      C2910   1.410       .  A
C2905      H2915   1.083       .  S
C2906      C2911   1.488       .  S
C2906      C2907   1.407       .  A
C2907      C2908   1.397       .  A
C2907      O2912   1.373       .  S
C2908      C2909   1.407       .  A
C2908      H2913   1.083       .  S
C2909      C2910   1.414       .  A
C2910      O2914   1.371       .  S
C2911      C2916   1.409       .  A
C2911      C2920   1.405       .  A
O2912      H2928   0.992       .  S
O2914      H2925   0.992       .  S
C2916      C2917   1.403       .  A
C2916      O2921   1.374       .  S
C2917      C2918   1.403       .  A
C2917      H2922   1.084       .  S
C2918      C2919   1.408       .  A
C2919      C2920   1.405       .  A
C2919      O2923   1.371       .  S
C2920      H2924   1.083       .  S
O2921      H2926   0.992       .  S
O2923      H2927   0.992       .  S
C2929      C2930   1.403       .  A
C2929      C2934   1.400       .  A
C2929      H2939   1.083       .  S
C2930      C2935   1.490   1_545  S
C2930      C2931   1.410       .  A
C2931      C2932   1.406       .  A
C2931      O2936   1.371       .  S
C2932      C2933   1.407       .  A
C2932      H2937   1.083       .  S
C2933      C2934   1.414       .  A
C2934      O2938   1.373       .  S
C2935      C2940   1.410       .  A
C2935      C2944   1.406       .  A
O2936      H2952   0.992       .  S
O2938      H2949   0.992       .  S
C2940      C2941   1.404       .  A
C2940      O2945   1.372       .  S
C2941      C2942   1.402       .  A
C2941      H2946   1.084       .  S
C2942      C2943   1.408       .  A
C2943      C2944   1.403       .  A
C2943      O2947   1.372       .  S
C2944      H2948   1.084       .  S
O2945      H2950   0.992       .  S
O2947      H2951   0.992       .  S
C2953      C2954   1.401       .  A
C2953      C2958   1.400       .  A
C2953      H2963   1.084       .  S
C2954      C2959   1.477       .  S
C2954      C2955   1.408       .  A
C2955      C2956   1.399       .  A
C2955      O2960   1.372       .  S
C2956      C2957   1.403       .  A
C2956      H2961   1.084       .  S
C2957      C2958   1.411       .  A
C2958      O2962   1.372       .  S
C2959      C2964   1.408       .  A
C2959      C2968   1.401       .  A
O2960      H2976   0.992       .  S
O2962      H2973   0.991       .  S
C2964      C2965   1.399   1_545  A
C2964      O2969   1.372   1_545  S
C2965      C2966   1.400       .  A
C2965      H2970   1.084       .  S
C2966      C2967   1.410   1_565  A
C2967      C2968   1.402       .  A
C2967      O2971   1.372       .  S
C2968      H2972   1.084       .  S
O2969      H2974   0.992   1_565  S
O2971      H2975   0.991       .  S
C2977      C2978   1.406       .  A
C2977      C2982   1.406       .  A
C2977      H2987   1.083       .  S
C2978      C2983   1.484       .  S
C2978      C2979   1.409       .  A
C2979      C2980   1.396       .  A
C2979      O2984   1.372       .  S
C2980      C2981   1.402       .  A
C2980      H2985   1.084       .  S
C2981      C2982   1.409       .  A
C2982      O2986   1.370       .  S
C2983      C2988   1.408       .  A
C2983      C2992   1.405       .  A
O2984      H3000   0.992       .  S
O2986      H2997   0.992       .  S
C2988      C2989   1.400       .  A
C2988      O2993   1.372       .  S
C2989      C2990   1.405       .  A
C2989      H2994   1.084       .  S
C2990      C2991   1.408       .  A
C2991      C2992   1.402       .  A
C2991      O2995   1.372       .  S
C2992      H2996   1.084       .  S
O2993      H2998   0.992       .  S
O2995      H2999   0.992       .  S
C3001      C3002   1.402       .  A
C3001      C3006   1.401       .  A
C3001      H3011   1.084       .  S
C3002      C3007   1.489       .  S
C3002      C3003   1.410       .  A
C3003      C3004   1.409       .  A
C3003      O3008   1.372       .  S
C3004      C3005   1.405       .  A
C3004      H3009   1.084       .  S
C3005      C3006   1.412       .  A
C3006      O3010   1.372   1_545  S
C3007      C3012   1.409       .  A
C3007      C3016   1.406       .  A
O3008      H3024   0.992       .  S
O3010      H3021   0.992       .  S
C3012      C3013   1.402       .  A
C3012      O3017   1.372       .  S
C3013      C3014   1.406       .  A
C3013      H3018   1.084       .  S
C3014      C3015   1.412       .  A
C3015      C3016   1.408       .  A
C3015      O3019   1.371       .  S
C3016      H3020   1.083       .  S
O3017      H3022   0.992       .  S
O3019      H3023   0.992       .  S
C3025      C3026   1.401       .  A
C3025      C3030   1.403       .  A
C3025      H3035   1.084       .  S
C3026      C3031   1.479       .  S
C3026      C3027   1.405       .  A
C3027      C3028   1.396       .  A
C3027      O3032   1.372       .  S
C3028      C3029   1.408       .  A
C3028      H3033   1.083       .  S
C3029      C3030   1.417       .  A
C3030      O3034   1.372       .  S
C3031      C3036   1.407       .  A
C3031      C3040   1.399       .  A
O3032      H3048   0.992       .  S
O3034      H3045   0.992       .  S
C3036      C3037   1.404       .  A
C3036      O3041   1.371       .  S
C3037      C3038   1.408       .  A
C3037      H3042   1.082       .  S
C3038      C3039   1.415       .  A
C3039      C3040   1.396       .  A
C3039      O3043   1.372       .  S
C3040      H3044   1.084       .  S
O3041      H3046   0.992       .  S
O3043      H3047   0.992       .  S
C3049      C3050   1.399       .  A
C3049      C3054   1.399       .  A
C3049      H3059   1.084       .  S
C3050      C3055   1.475       .  S
C3050      C3051   1.409       .  A
C3051      C3052   1.401       .  A
C3051      O3056   1.372       .  S
C3052      C3053   1.401       .  A
C3052      H3057   1.084       .  S
C3053      C3054   1.409       .  A
C3054      O3058   1.371       .  S
C3055      C3060   1.408       .  A
C3055      C3064   1.400       .  A
O3056      H3072   0.992       .  S
O3058      H3069   0.991       .  S
C3060      C3061   1.397       .  A
C3060      O3065   1.371       .  S
C3061      C3062   1.400       .  A
C3061      H3066   1.084       .  S
C3062      C3063   1.411       .  A
C3063      C3064   1.402       .  A
C3063      O3067   1.372       .  S
C3064      H3068   1.083       .  S
O3065      H3070   0.992       .  S
O3067      H3071   0.991       .  S
C3073      C3074   1.400       .  A
C3073      C3078   1.394       .  A
C3073      H3083   1.084   1_655  S
C3074      C3079   1.478   1_655  S
C3074      C3075   1.409       .  A
C3075      C3076   1.406       .  A
C3075      O3080   1.372       .  S
C3076      C3077   1.404       .  A
C3076      H3081   1.084       .  S
C3077      C3078   1.409       .  A
C3078      O3082   1.372       .  S
C3079      C3084   1.408       .  A
C3079      C3088   1.404       .  A
O3080      H3096   0.992       .  S
O3082      H3093   0.992       .  S
C3084      C3085   1.399       .  A
C3084      O3089   1.372       .  S
C3085      C3086   1.404       .  A
C3085      H3090   1.084       .  S
C3086      C3087   1.409       .  A
C3087      C3088   1.402       .  A
C3087      O3091   1.372       .  S
C3088      H3092   1.084       .  S
O3089      H3094   0.992       .  S
O3091      H3095   0.992       .  S
C3097      C3098   1.403       .  A
C3097      C3102   1.399       .  A
C3097      H3107   1.084       .  S
C3098      C3103   1.481       .  S
C3098      C3099   1.409       .  A
C3099      C3100   1.400       .  A
C3099      O3104   1.373       .  S
C3100      C3101   1.404       .  A
C3100      H3105   1.084       .  S
C3101      C3102   1.410       .  A
C3102      O3106   1.372       .  S
C3103      C3108   1.405       .  A
C3103      C3112   1.405       .  A
O3104      H3120   0.992       .  S
O3106      H3117   0.992       .  S
C3108      C3109   1.396       .  A
C3108      O3113   1.372       .  S
C3109      C3110   1.409       .  A
C3109      H3114   1.083       .  S
C3110      C3111   1.412       .  A
C3111      C3112   1.402       .  A
C3111      O3115   1.372       .  S
C3112      H3116   1.084       .  S
O3113      H3118   0.992       .  S
O3115      H3119   0.992       .  S
C3121      C3122   1.403       .  A
C3121      C3126   1.401       .  A
C3121      H3131   1.084       .  S
C3122      C3127   1.485       .  S
C3122      C3123   1.410       .  A
C3123      C3124   1.405       .  A
C3123      O3128   1.373       .  S
C3124      C3125   1.402       .  A
C3124      H3129   1.084       .  S
C3125      C3126   1.409       .  A
C3126      O3130   1.372       .  S
C3127      C3132   1.408       .  A
C3127      C3136   1.406       .  A
O3128      H3144   0.992       .  S
O3130      H3141   0.992       .  S
C3132      C3133   1.396       .  A
C3132      O3137   1.372       .  S
C3133      C3134   1.404       .  A
C3133      H3138   1.084       .  S
C3134      C3135   1.411       .  A
C3135      C3136   1.409       .  A
C3135      O3139   1.371       .  S
C3136      H3140   1.083       .  S
O3137      H3142   0.992       .  S
O3139      H3143   0.992       .  S
C3145      C3146   1.401       .  A
C3145      C3150   1.403       .  A
C3145      H3155   1.083       .  S
C3146      C3151   1.477       .  S
C3146      C3147   1.407       .  A
C3147      C3148   1.399       .  A
C3147      O3152   1.372       .  S
C3148      C3149   1.402       .  A
C3148      H3153   1.084       .  S
C3149      C3150   1.411       .  A
C3150      O3154   1.372       .  S
C3151      C3156   1.407       .  A
C3151      C3160   1.400       .  A
O3152      H3168   0.992       .  S
O3154      H3165   0.991       .  S
C3156      C3157   1.398       .  A
C3156      O3161   1.371       .  S
C3157      C3158   1.403       .  A
C3157      H3162   1.084       .  S
C3158      C3159   1.414       .  A
C3159      C3160   1.403       .  A
C3159      O3163   1.372       .  S
C3160      H3164   1.084       .  S
O3161      H3166   0.992       .  S
O3163      H3167   0.991       .  S
C3169      C3170   1.405       .  A
C3169      C3174   1.408   1_655  A
C3169      H3179   1.083       .  S
C3170      C3175   1.483       .  S
C3170      C3171   1.406       .  A
C3171      C3172   1.396   1_655  A
C3171      O3176   1.372       .  S
C3172      C3173   1.405       .  A
C3172      H3177   1.084       .  S
C3173      C3174   1.411       .  A
C3174      O3178   1.371       .  S
C3175      C3180   1.407       .  A
C3175      C3184   1.406       .  A
O3176      H3192   0.992   1_655  S
O3178      H3189   0.992   1_455  S
C3180      C3181   1.400       .  A
C3180      O3185   1.372       .  S
C3181      C3182   1.403       .  A
C3181      H3186   1.084       .  S
C3182      C3183   1.408       .  A
C3183      C3184   1.405       .  A
C3183      O3187   1.371       .  S
C3184      H3188   1.083       .  S
O3185      H3190   0.992   1_655  S
O3187      H3191   0.992       .  S
C3193      C3194   1.406       .  A
C3193      C3198   1.404       .  A
C3193      H3203   1.083       .  S
C3194      C3199   1.486       .  S
C3194      C3195   1.409       .  A
C3195      C3196   1.401       .  A
C3195      O3200   1.372       .  S
C3196      C3197   1.402       .  A
C3196      H3201   1.084       .  S
C3197      C3198   1.407       .  A
C3198      O3202   1.371       .  S
C3199      C3204   1.406       .  A
C3199      C3208   1.407       .  A
O3200      H3216   0.992       .  S
O3202      H3213   0.992       .  S
C3204      C3205   1.397       .  A
C3204      O3209   1.372       .  S
C3205      C3206   1.407       .  A
C3205      H3210   1.084       .  S
C3206      C3207   1.412       .  A
C3207      C3208   1.409       .  A
C3207      O3211   1.371       .  S
C3208      H3212   1.083       .  S
O3209      H3214   0.992       .  S
O3211      H3215   0.992       .  S
C3217      C3218   1.400       .  A
C3217      C3222   1.396       .  A
C3217      H3227   1.084       .  S
C3218      C3223   1.475       .  S
C3218      C3219   1.404       .  A
C3219      C3220   1.400       .  A
C3219      O3224   1.372       .  S
C3220      C3221   1.408       .  A
C3220      H3225   1.082       .  S
C3221      C3222   1.414       .  A
C3222      O3226   1.372       .  S
C3223      C3228   1.406       .  A
C3223      C3232   1.400       .  A
O3224      H3240   0.992       .  S
O3226      H3237   0.992       .  S
C3228      C3229   1.399       .  A
C3228      O3233   1.372       .  S
C3229      C3230   1.407       .  A
C3229      H3234   1.083       .  S
C3230      C3231   1.414       .  A
C3231      C3232   1.396       .  A
C3231      O3235   1.372       .  S
C3232      H3236   1.084       .  S
O3233      H3238   0.992       .  S
O3235      H3239   0.992       .  S
C3241      C3242   1.406       .  A
C3241      C3246   1.403       .  A
C3241      H3251   1.084       .  S
C3242      C3247   1.491       .  S
C3242      C3243   1.407       .  A
C3243      C3244   1.403       .  A
C3243      O3248   1.372       .  S
C3244      C3245   1.410       .  A
C3244      H3249   1.083       .  S
C3245      C3246   1.413       .  A
C3246      O3250   1.372   1_455  S
C3247      C3252   1.410       .  A
C3247      C3256   1.401       .  A
O3248      H3264   0.992       .  S
O3250      H3261   0.992       .  S
C3252      C3253   1.407       .  A
C3252      O3257   1.372       .  S
C3253      C3254   1.409   1_565  A
C3253      H3258   1.083       .  S
C3254      C3255   1.418       .  A
C3255      C3256   1.399   1_545  A
C3255      O3259   1.372       .  S
C3256      H3260   1.084       .  S
O3257      H3262   0.992       .  S
O3259      H3263   0.992       .  S
C3265      C3266   1.402       .  A
C3265      C3270   1.398       .  A
C3265      H3275   1.084       .  S
C3266      C3271   1.479       .  S
C3266      C3267   1.406       .  A
C3267      C3268   1.405       .  A
C3267      O3272   1.371       .  S
C3268      C3269   1.406       .  A
C3268      H3273   1.084       .  S
C3269      C3270   1.408       .  A
C3270      O3274   1.372       .  S
C3271      C3276   1.404       .  A
C3271      C3280   1.405   1_455  A
O3272      H3288   0.992       .  S
O3274      H3285   0.992       .  S
C3276      C3277   1.402   1_455  A
C3276      O3281   1.372       .  S
C3277      C3278   1.406       .  A
C3277      H3282   1.084   1_655  S
C3278      C3279   1.405       .  A
C3279      C3280   1.402       .  A
C3279      O3283   1.371       .  S
C3280      H3284   1.084       .  S
O3281      H3286   0.992       .  S
O3283      H3287   0.992       .  S
C3289      C3290   1.404       .  A
C3289      C3294   1.403       .  A
C3289      H3299   1.084       .  S
C3290      C3295   1.480       .  S
C3290      C3291   1.406       .  A
C3291      C3292   1.400       .  A
C3291      O3296   1.372       .  S
C3292      C3293   1.404       .  A
C3292      H3297   1.084       .  S
C3293      C3294   1.409       .  A
C3294      O3298   1.372       .  S
C3295      C3300   1.405       .  A
C3295      C3304   1.403       .  A
O3296      H3312   0.992       .  S
O3298      H3309   0.991       .  S
C3300      C3301   1.394       .  A
C3300      O3305   1.372       .  S
C3301      C3302   1.405       .  A
C3301      H3306   1.084       .  S
C3302      C3303   1.415       .  A
C3303      C3304   1.410       .  A
C3303      O3307   1.371       .  S
C3304      H3308   1.083       .  S
O3305      H3310   0.992       .  S
O3307      H3311   0.992       .  S
C3313      C3314   1.404   1_455  A
C3313      C3318   1.402       .  A
C3313      H3323   1.084       .  S
C3314      C3319   1.479       .  S
C3314      C3315   1.407       .  A
C3315      C3316   1.400   1_655  A
C3315      O3320   1.372       .  S
C3316      C3317   1.403       .  A
C3316      H3321   1.084       .  S
C3317      C3318   1.406       .  A
C3318      O3322   1.371       .  S
C3319      C3324   1.406   1_655  A
C3319      C3328   1.403       .  A
O3320      H3336   0.992       .  S
O3322      H3333   0.991       .  S
C3324      C3325   1.394   1_455  A
C3324      O3329   1.372       .  S
C3325      C3326   1.405       .  A
C3325      H3330   1.084   1_655  S
C3326      C3327   1.413       .  A
C3327      C3328   1.406       .  A
C3327      O3331   1.372       .  S
C3328      H3332   1.083       .  S
O3329      H3334   0.992       .  S
O3331      H3335   0.992       .  S
C3337      C3338   1.403       .  A
C3337      C3342   1.401       .  A
C3337      H3347   1.084       .  S
C3338      C3343   1.478       .  S
C3338      C3339   1.404       .  A
C3339      C3340   1.397       .  A
C3339      O3344   1.373       .  S
C3340      C3341   1.409       .  A
C3340      H3345   1.083       .  S
C3341      C3342   1.413       .  A
C3342      O3346   1.371       .  S
C3343      C3348   1.408       .  A
C3343      C3352   1.397       .  A
O3344      H3360   0.992       .  S
O3346      H3357   0.992       .  S
C3348      C3349   1.403   1_565  A
C3348      O3353   1.373       .  S
C3349      C3350   1.407       .  A
C3349      H3354   1.083       .  S
C3350      C3351   1.419       .  A
C3351      C3352   1.396   1_545  A
C3351      O3355   1.372       .  S
C3352      H3356   1.084       .  S
O3353      H3358   0.992   1_565  S
O3355      H3359   0.992       .  S
C3361      C3362   1.407       .  A
C3361      C3366   1.403       .  A
C3361      H3371   1.083       .  S
C3362      C3367   1.484       .  S
C3362      C3363   1.406       .  A
C3363      C3364   1.393       .  A
C3363      O3368   1.372       .  S
C3364      C3365   1.407       .  A
C3364      H3369   1.084   1_455  S
C3365      C3366   1.411       .  A
C3366      O3370   1.371       .  S
C3367      C3372   1.410       .  A
C3367      C3376   1.406       .  A
O3368      H3384   0.992       .  S
O3370      H3381   0.992       .  S
C3372      C3373   1.399       .  A
C3372      O3377   1.372       .  S
C3373      C3374   1.401       .  A
C3373      H3378   1.084       .  S
C3374      C3375   1.405       .  A
C3375      C3376   1.399       .  A
C3375      O3379   1.371       .  S
C3376      H3380   1.083       .  S
O3377      H3382   0.992       .  S
O3379      H3383   0.992       .  S
C3385      C3386   1.402       .  A
C3385      C3390   1.403       .  A
C3385      H3395   1.083       .  S
C3386      C3391   1.478       .  S
C3386      C3387   1.408       .  A
C3387      C3388   1.398       .  A
C3387      O3392   1.374       .  S
C3388      C3389   1.400       .  A
C3388      H3393   1.084       .  S
C3389      C3390   1.410       .  A
C3390      O3394   1.372       .  S
C3391      C3396   1.408       .  A
C3391      C3400   1.401       .  A
O3392      H3408   0.992       .  S
O3394      H3405   0.992       .  S
C3396      C3397   1.398       .  A
C3396      O3401   1.374       .  S
C3397      C3398   1.402       .  A
C3397      H3402   1.084       .  S
C3398      C3399   1.410       .  A
C3399      C3400   1.404       .  A
C3399      O3403   1.371       .  S
C3400      H3404   1.083       .  S
O3401      H3406   0.992       .  S
O3403      H3407   0.991       .  S
C3409      C3410   1.406       .  A
C3409      C3414   1.402       .  A
C3409      H3419   1.084       .  S
C3410      C3415   1.486       .  S
C3410      C3411   1.410       .  A
C3411      C3412   1.402       .  A
C3411      O3416   1.372       .  S
C3412      C3413   1.402       .  A
C3412      H3417   1.084       .  S
C3413      C3414   1.406       .  A
C3414      O3418   1.371       .  S
C3415      C3420   1.410       .  A
C3415      C3424   1.401       .  A
O3416      H3432   0.992       .  S
O3418      H3429   0.992       .  S
C3420      C3421   1.407   1_545  A
C3420      O3425   1.371       .  S
C3421      C3422   1.408       .  A
C3421      H3426   1.083       .  S
C3422      C3423   1.413       .  A
C3423      C3424   1.397   1_565  A
C3423      O3427   1.372       .  S
C3424      H3428   1.084       .  S
O3425      H3430   0.992       .  S
O3427      H3431   0.992       .  S
C3433      C3434   1.399       .  A
C3433      C3438   1.399       .  A
C3433      H3443   1.084       .  S
C3434      C3439   1.478       .  S
C3434      C3435   1.406       .  A
C3435      C3436   1.402       .  A
C3435      O3440   1.372       .  S
C3436      C3437   1.407       .  A
C3436      H3441   1.083       .  S
C3437      C3438   1.416       .  A
C3438      O3442   1.371       .  S
C3439      C3444   1.405       .  A
C3439      C3448   1.399       .  A
O3440      H3456   0.992       .  S
O3442      H3453   0.992       .  S
C3444      C3445   1.401       .  A
C3444      O3449   1.372       .  S
C3445      C3446   1.408       .  A
C3445      H3450   1.083       .  S
C3446      C3447   1.416       .  A
C3447      C3448   1.399       .  A
C3447      O3451   1.371       .  S
C3448      H3452   1.084       .  S
O3449      H3454   0.992       .  S
O3451      H3455   0.992       .  S
C3457      C3458   1.403       .  A
C3457      C3462   1.399       .  A
C3457      H3467   1.084       .  S
C3458      C3463   1.482       .  S
C3458      C3459   1.407       .  A
C3459      C3460   1.401       .  A
C3459      O3464   1.373       .  S
C3460      C3461   1.408       .  A
C3460      H3465   1.083       .  S
C3461      C3462   1.413       .  A
C3462      O3466   1.372       .  S
C3463      C3468   1.406       .  A
C3463      C3472   1.404       .  A
O3464      H3480   0.992       .  S
O3466      H3477   0.992       .  S
C3468      C3469   1.401       .  A
C3468      O3473   1.373       .  S
C3469      C3470   1.409       .  A
C3469      H3474   1.083       .  S
C3470      C3471   1.412       .  A
C3471      C3472   1.400       .  A
C3471      O3475   1.371       .  S
C3472      H3476   1.084       .  S
O3473      H3478   0.992       .  S
O3475      H3479   0.992       .  S
C3481      C3482   1.406       .  A
C3481      C3486   1.404       .  A
C3481      H3491   1.083       .  S
C3482      C3487   1.485       .  S
C3482      C3483   1.409       .  A
C3483      C3484   1.400       .  A
C3483      O3488   1.372       .  S
C3484      C3485   1.403       .  A
C3484      H3489   1.084       .  S
C3485      C3486   1.407       .  A
C3486      O3490   1.371       .  S
C3487      C3492   1.407       .  A
C3487      C3496   1.406       .  A
O3488      H3504   0.992       .  S
O3490      H3501   0.992       .  S
C3492      C3493   1.398   1_455  A
C3492      O3497   1.372       .  S
C3493      C3494   1.405       .  A
C3493      H3498   1.084       .  S
C3494      C3495   1.410       .  A
C3495      C3496   1.405   1_655  A
C3495      O3499   1.371       .  S
C3496      H3500   1.083       .  S
O3497      H3502   0.992       .  S
O3499      H3503   0.992       .  S
C3505      C3506   1.400       .  A
C3505      C3510   1.399       .  A
C3505      H3515   1.084       .  S
C3506      C3511   1.473       .  S
C3506      C3507   1.404       .  A
C3507      C3508   1.397       .  A
C3507      O3512   1.372       .  S
C3508      C3509   1.409       .  A
C3508      H3513   1.083       .  S
C3509      C3510   1.416       .  A
C3510      O3514   1.372       .  S
C3511      C3516   1.404       .  A
C3511      C3520   1.399       .  A
O3512      H3528   0.992       .  S
O3514      H3525   0.992       .  S
C3516      C3517   1.400       .  A
C3516      O3521   1.372       .  S
C3517      C3518   1.409       .  A
C3517      H3522   1.083       .  S
C3518      C3519   1.413       .  A
C3519      C3520   1.396       .  A
C3519      O3523   1.372       .  S
C3520      H3524   1.084       .  S
O3521      H3526   0.992       .  S
O3523      H3527   0.992       .  S
