geometry optimzed in LAMMPS
_audit_creation_date              2020-12-01 
_audit_creation_method            'lammps2cif' 
_symmetry_space_group_name_H-M    'P1' 
_symmetry_Int_Tables_number       1 
_symmetry_cell_setting            triclinic 
loop_ 
_symmetry_equiv_pos_as_xyz 
  x,y,z 
_cell_length_a                    26.0049426 
_cell_length_b                    25.96620682341358 
_cell_length_c                    36.62122671991796 
_cell_angle_alpha                 90.06697001185621 
_cell_angle_beta                  89.53520058854723 
_cell_angle_gamma                 90.05714180074717 
loop_ 
_atom_site_label 
_atom_site_type_symbol 
_atom_site_fract_x 
_atom_site_fract_y 
_atom_site_fract_z 
_atom_site_charge 
O1          O  0.25928862  0.24046060  0.41210405    -0.81400
C2          C  0.13088584  0.40277663  0.36612670     0.97900
O3          O  0.11839675  0.35578897  0.36640025    -0.70600
O4          O  0.19530510  0.31738348  0.33061514    -0.74200
Al5        Al  0.16303895  0.29749950  0.37395444     1.49000
C6          C  0.23872189  0.30068135  0.32150952     0.93200
O7          O  0.29726567  0.37454721  0.38196534    -0.80400
O8          O  0.21942674  0.35124680  0.47196922    -0.73900
Al9        Al  0.27500118  0.30933631  0.39763838     1.90100
O10         O  0.25284681  0.42286806  0.41994872    -0.73000
O11         O  0.12567025  0.34939291  0.44420930    -0.72900
O12         O  0.16246516  0.41831087  0.38955144    -0.78500
O13         O  0.12748940  0.27551307  0.41494319    -0.76700
O14         O  0.20994447  0.32929529  0.40076660    -1.12900
O15         O  0.19605850  0.23089082  0.37375327    -0.72000
C16         C  0.23202850  0.21149857  0.39224793     0.98700
C17         C  0.28878605  0.41771612  0.39647820     0.95100
Al18       Al  0.19124886  0.38131091  0.42929271     1.55600
O19         O  0.27177491  0.29070137  0.34596420    -0.76700
C20         C  0.10876934  0.30372550  0.43953218     0.99200
C21         C  0.26567405  0.33813198  0.47630287     0.94100
O22         O  0.29225345  0.32477664  0.44857570    -0.82000
O23         O  0.23844348  0.20152983  0.04418296    -0.81400
C24         C  0.39074285  0.12939471  0.13657802     0.97900
O25         O  0.36183743  0.11192758  0.11219164    -0.70600
O26         O  0.27517417  0.10447421  0.07816820    -0.74200
Al27       Al  0.33706045  0.14586403  0.07003284     1.49000
C28         C  0.23786182  0.11119000  0.10032758     0.93200
O29         O  0.24857630  0.24110308  0.14666109    -0.80400
O30         O  0.32443084  0.29971646  0.12154290    -0.73900
Al31       Al  0.25049406  0.21919082  0.09522946     1.90100
O32         O  0.32347139  0.21474503  0.16586887    -0.73000
O33         O  0.39773372  0.25378142  0.08333097    -0.72900
O34         O  0.40411959  0.17612204  0.13454487    -0.78500
O35         O  0.40334352  0.17765481  0.05717423    -0.76700
O36         O  0.31541966  0.19933351  0.09587670    -1.12900
O37         O  0.31324426  0.17291290  0.02525601    -0.72000
C38         C  0.26810386  0.18728714  0.01840799     0.98700
C39         C  0.28001831  0.23349470  0.17261740     0.95100
Al40       Al  0.35930234  0.23339057  0.12366757     1.55600
O41         O  0.22692506  0.15548252  0.11187963    -0.76700
C42         C  0.41879642  0.22407640  0.06052836     0.99200
C43         C  0.28897512  0.31647528  0.10128938     0.94100
O44         O  0.26871896  0.28575380  0.07898836    -0.82000
O45         O  0.43422011  0.04538732  0.30206884    -0.81400
C46         C  0.37673092  0.87923811  0.38700368     0.97900
O47         O  0.35759468  0.90831895  0.36330726    -0.70600
O48         O  0.34398932  0.99815255  0.33361837    -0.74200
Al49       Al  0.38925972  0.93973292  0.32243667     1.49000
C50         C  0.34795719  0.03339068  0.35767149     0.93200
O51         O  0.47903274  0.02797664  0.40136090    -0.80400
O52         O  0.54250948  0.95875750  0.37205041    -0.73900
Al53       Al  0.45524011  0.02854191  0.35126004     1.90100
O54         O  0.45964985  0.95006826  0.41885705    -0.73000
O55         O  0.50045006  0.88370753  0.33295700    -0.72900
O56         O  0.42442091  0.86986401  0.38537921    -0.78500
O57         O  0.42473828  0.87646142  0.30714106    -0.76700
O58         O  0.44110445  0.96226308  0.34904966    -1.12900
O59         O  0.41447159  0.97075358  0.27840659    -0.72000
C60         C  0.42370536  0.01824876  0.27438794     0.98700
C61         C  0.47376256  0.99495684  0.42657027     0.95100
Al62       Al  0.47884450  0.91870812  0.37475836     1.55600
O63         O  0.39100869  0.04445151  0.37078579    -0.76700
C64         C  0.47107866  0.86133872  0.31084311     0.99200
C65         C  0.55516343  0.99804781  0.35342227     0.94100
O66         O  0.52257457  0.01808578  0.33246599    -0.82000
O67         O  0.48683628  0.02256661  0.66829789    -0.81400
C68         C  0.64725929  0.14865781  0.61373153     0.97900
O69         O  0.60056089  0.16162243  0.61725104    -0.70600
O70         O  0.55553880  0.08670044  0.58210426    -0.74200
Al71       Al  0.54161913  0.11763701  0.62721895     1.49000
C72         C  0.53804520  0.04302713  0.57408296     0.93200
O73         O  0.61475216  0.98234430  0.62900811    -0.80400
O74         O  0.60402445  0.05813763  0.72084222    -0.73900
Al75       Al  0.55278288  0.00535185  0.64918580     1.90100
O76         O  0.66828342  0.02000361  0.66614596    -0.73000
O77         O  0.60327952  0.15241545  0.69322920    -0.72900
O78         O  0.66422894  0.11326896  0.63400178    -0.78500
O79         O  0.52544571  0.15090967  0.67020106    -0.76700
O80         O  0.57509626  0.06919055  0.65130719    -1.12900
O81         O  0.47400355  0.08536959  0.63004243    -0.72000
C82         C  0.45627968  0.04849913  0.64898478     0.98700
C83         C  0.65750174  0.98293990  0.64467984     0.95100
Al84       Al  0.63084623  0.08519428  0.67645055     1.55600
O85         O  0.52908326  0.01006131  0.59900998    -0.76700
C86         C  0.55690184  0.16873161  0.69283251     0.99200
C87         C  0.59048181  0.01194864  0.72573313     0.94100
O88         O  0.57329555  0.98623704  0.69888723    -0.82000
O89         O  0.03570674  0.01605406  0.16354560    -0.81400
C90         C  0.87766033  0.88483210  0.11265470     0.97900
O91         O  0.92491085  0.87425325  0.11280587    -0.70600
O92         O  0.96582314  0.95327872  0.07967198    -0.74200
Al93       Al  0.98165386  0.91916967  0.12321190     1.49000
C94         C  0.97931066  0.99889354  0.07288377     0.93200
O95         O  0.90227923  0.05309745  0.13371111    -0.80400
O96         O  0.91955334  0.97360787  0.22182726    -0.73900
Al97       Al  0.96672850  0.03068963  0.14934242     1.90100
O98         O  0.85159558  0.00461863  0.16718563    -0.73000
O99         O  0.92652151  0.87992556  0.19274994    -0.72900
O100        O  0.86026438  0.91467383  0.13680366    -0.78500
O101        O  0.00095559  0.88172867  0.16398139    -0.76700
O102        O  0.94748917  0.96494932  0.15042813    -1.12900
O103        O  0.04698531  0.95254507  0.12539263    -0.72000
C104        C  0.06519678  0.98973985  0.14321912     0.98700
C105        C  0.85813216  0.04208702  0.14536421     0.95100
Al106      Al  0.89395427  0.94454605  0.17754101     1.55600
O107        O  0.98549508  0.03074814  0.09862288    -0.76700
C108        C  0.97209772  0.86289753  0.18823070     0.99200
C109        C  0.93619163  0.01866427  0.22715005     0.94100
O110        O  0.95086464  0.04500090  0.19992967    -0.82000
O111        O  0.08439158  0.98517204  0.79982175    -0.81400
C112        C  0.15949876  0.14476180  0.88426232     0.97900
O113        O  0.17514789  0.11402408  0.86015902    -0.70600
O114        O  0.18041923  0.02315079  0.83037921    -0.74200
Al115      Al  0.13984037  0.08553499  0.82036703     1.49000
C116        C  0.17340258  0.98740743  0.85372381     0.93200
O117        O  0.04489217  0.00332512  0.89997627    -0.80400
O118        O  0.98636664  0.08120885  0.87142108    -0.73900
Al119      Al  0.06611826  0.00166196  0.84964431     1.90100
O120        O  0.06729474  0.08024952  0.91813027    -0.73000
O121        O  0.03500146  0.15106742  0.83338374    -0.72900
O122        O  0.11239157  0.15704273  0.88524326    -0.78500
O123        O  0.10993958  0.15168380  0.80539936    -0.76700
O124        O  0.08638762  0.06699443  0.84795162    -1.12900
O125        O  0.11116113  0.05810370  0.77725964    -0.72000
C126        C  0.09767548  0.01204282  0.77253829     0.98700
C127        C  0.05151152  0.03563178  0.92538495     0.95100
Al128      Al  0.05307813  0.11384112  0.87444475     1.55600
O129        O  0.12937258  0.97934482  0.86675112    -0.76700
C130        C  0.06465267  0.16953581  0.80958020     0.99200
C131        C  0.96842386  0.04390796  0.85322824     0.94100
O132        O  0.99848865  0.01726213  0.83357151    -0.82000
O133        O  0.77349362  0.29286149  0.41907167    -0.81400
C134        C  0.89429122  0.12834215  0.36383296     0.97900
O135        O  0.90685027  0.17503417  0.36658997    -0.70600
O136        O  0.82928053  0.21872172  0.33285967    -0.74200
Al137      Al  0.86410817  0.23375136  0.37649568     1.49000
C138        C  0.78596000  0.23847197  0.32661715     0.93200
O139        O  0.72745454  0.16396153  0.38582326    -0.80400
O140        O  0.80662803  0.17239678  0.47396217    -0.73900
Al141      Al  0.75348485  0.22603837  0.40290627     1.90100
O142        O  0.76869145  0.10838676  0.41960420    -0.73000
O143        O  0.90018932  0.17364215  0.44317360    -0.72900
O144        O  0.86019389  0.11117237  0.38546534    -0.78500
O145        O  0.90068333  0.25072573  0.41786590    -0.76700
O146        O  0.81667470  0.20181672  0.40315724    -1.12900
O147        O  0.83419865  0.30181127  0.37840516    -0.72000
C148        C  0.79924158  0.32166962  0.39791750     0.98700
C149        C  0.73065739  0.11985792  0.39970002     0.95100
Al150      Al  0.83307967  0.14573425  0.42850883     1.55600
O151        O  0.75510019  0.24756317  0.35274313    -0.76700
C152        C  0.91853472  0.21917684  0.44054891     0.99200
C153        C  0.76266169  0.19185107  0.47970143     0.94100
O154        O  0.73771106  0.20909688  0.45287704    -0.82000
O155        O  0.79296923  0.33174607  0.05450539    -0.81400
C156        C  0.62893858  0.40579212  0.13660940     0.97900
O157        O  0.66142951  0.42204326  0.11378616    -0.70600
O158        O  0.75178755  0.42783660  0.08361722    -0.74200
Al159      Al  0.69106410  0.38618590  0.07384041     1.49000
C160        C  0.78601258  0.42304633  0.10790687     0.93200
O161        O  0.77059650  0.29500790  0.15536774    -0.80400
O162        O  0.69654406  0.23424198  0.12702302    -0.73900
Al163      Al  0.77471231  0.31480584  0.10467972     1.90100
O164        O  0.69329579  0.31943590  0.17143896    -0.73000
O165        O  0.62781386  0.27967462  0.08586299    -0.72900
O166        O  0.61701187  0.35859217  0.13589432    -0.78500
O167        O  0.62614642  0.35513298  0.05877312    -0.76700
O168        O  0.70945590  0.33371218  0.10165242    -1.12900
O169        O  0.72000617  0.35640613  0.03123317    -0.72000
C170        C  0.76646565  0.34393376  0.02690477     0.98700
C171        C  0.73749759  0.30471440  0.18004167     0.95100
Al172      Al  0.66224826  0.30056213  0.12763802     1.55600
O173        O  0.79501287  0.37971652  0.12171022    -0.76700
C174        C  0.60911815  0.30943405  0.06236328     0.99200
C175        C  0.73428161  0.21635933  0.10899910     0.94100
O176        O  0.76073983  0.24631556  0.08911667    -0.82000
O177        O  0.73730493  0.68064752  0.55255754    -0.81400
C178        C  0.90180819  0.62006921  0.63933266     0.97900
O179        O  0.87231176  0.60097371  0.61587509    -0.70600
O180        O  0.78385393  0.58533651  0.58432779    -0.74200
Al181      Al  0.84152830  0.63290292  0.57508231     1.49000
C182        C  0.74635452  0.58907329  0.60673501     0.93200
O183        O  0.74788164  0.71640077  0.65417012    -0.80400
O184        O  0.81702157  0.78524535  0.62891439    -0.73900
Al185      Al  0.75017464  0.69748433  0.60299735     1.90100
O186        O  0.82605098  0.69982676  0.67225865    -0.73000
O187        O  0.89396366  0.74572404  0.58882334    -0.72900
O188        O  0.90876290  0.66830253  0.63921142    -0.78500
O189        O  0.90402232  0.67086922  0.56147708    -0.76700
O190        O  0.81660787  0.68388480  0.60216630    -1.12900
O191        O  0.81251289  0.65812108  0.53088470    -0.72000
C192        C  0.76615486  0.67016178  0.52560365     0.98700
C193        C  0.78009639  0.71059731  0.67966722     0.95100
Al194      Al  0.85833844  0.72174072  0.62960586     1.55600
O195        O  0.73301344  0.63216873  0.61891768    -0.76700
C196        C  0.91753732  0.71768649  0.56612144     0.99200
C197        C  0.77898714  0.79852505  0.60958445     0.94100
O198        O  0.76069348  0.76633821  0.58746687    -0.82000
O199        O  0.76837928  0.74255130  0.91450142    -0.81400
C200        C  0.63992033  0.90169049  0.86108137     0.97900
O201        O  0.62940309  0.85424152  0.86099520    -0.70600
O202        O  0.70884471  0.81271787  0.82978492    -0.74200
Al203      Al  0.67332500  0.79671609  0.87241689     1.49000
C204        C  0.75320778  0.79608161  0.82294876     0.93200
O205        O  0.80664302  0.87507713  0.88160517    -0.80400
O206        O  0.72557034  0.85663613  0.97008875    -0.73900
Al207      Al  0.78430630  0.81089478  0.89869655     1.90100
O208        O  0.75917704  0.92568165  0.91604004    -0.73000
O209        O  0.63248539  0.85193861  0.94110326    -0.72900
O210        O  0.66963984  0.91870913  0.88520338    -0.78500
O211        O  0.63447275  0.77747222  0.91271892    -0.76700
O212        O  0.71862146  0.83043757  0.89951120    -1.12900
O213        O  0.70603616  0.73082430  0.87570775    -0.72000
C214        C  0.74209372  0.71268244  0.89458335     0.98700
C215        C  0.79602760  0.91930204  0.89344659     0.95100
Al216      Al  0.69811376  0.88385136  0.92614909     1.55600
O217        O  0.78481031  0.78960728  0.84856077    -0.76700
C218        C  0.61514465  0.80641344  0.93661514     0.99200
C219        C  0.77158483  0.84344401  0.97543391     0.94100
O220        O  0.79909287  0.82904343  0.94869700    -0.82000
O221        O  0.57872040  0.48632826  0.30001370    -0.81400
C222        C  0.65577290  0.64229053  0.38905861     0.97900
O223        O  0.67164344  0.61383468  0.36365601    -0.70600
O224        O  0.67908813  0.52583428  0.33144241    -0.74200
Al225      Al  0.63592269  0.58623855  0.32324201     1.49000
C226        C  0.67355593  0.48883243  0.35377695     0.93200
O227        O  0.54741176  0.49722306  0.40192110    -0.80400
O228        O  0.48442756  0.57590954  0.37833542    -0.73900
Al229      Al  0.56444459  0.49903092  0.35110721     1.90100
O230        O  0.56825684  0.57373140  0.42196288    -0.73000
O231        O  0.52960105  0.64888241  0.34025949    -0.72900
O232        O  0.60858182  0.65362217  0.39022309    -0.78500
O233        O  0.60292887  0.65143547  0.31010581    -0.76700
O234        O  0.58349212  0.56482630  0.35097273    -1.12900
O235        O  0.60781075  0.55949778  0.27940548    -0.72000
C236        C  0.59212454  0.51438087  0.27334308     0.98700
C237        C  0.55425225  0.52819440  0.42807902     0.95100
Al238      Al  0.55057278  0.60950557  0.37982847     1.55600
O239        O  0.62958469  0.47675512  0.36530095    -0.76700
C240        C  0.55752660  0.66829172  0.31567641     0.99200
C241        C  0.46565342  0.53946804  0.35982939     0.94100
O242        O  0.49473890  0.51404828  0.33855153    -0.82000
O243        O  0.53756682  0.50490713  0.66360557    -0.81400
C244        C  0.37570546  0.37687189  0.61345327     0.97900
O245        O  0.42272260  0.36498885  0.61380789    -0.70600
O246        O  0.46564851  0.44289550  0.58073989    -0.74200
Al247      Al  0.48087499  0.40875868  0.62415699     1.49000
C248        C  0.48011627  0.48819239  0.57401282     0.93200
O249        O  0.40411803  0.54458249  0.63501859    -0.80400
O250        O  0.42071761  0.46486351  0.72250656    -0.73900
Al251      Al  0.46841645  0.52085972  0.65012889     1.90100
O252        O  0.35272675  0.49682634  0.66839510    -0.73000
O253        O  0.42511340  0.37157240  0.69380463    -0.72900
O254        O  0.35923076  0.40722413  0.63764400    -0.78500
O255        O  0.49981295  0.37136429  0.66525177    -0.76700
O256        O  0.44783974  0.45553046  0.65129963    -1.12900
O257        O  0.54717923  0.44056963  0.62586748    -0.72000
C258        C  0.56644492  0.47726630  0.64364102     0.98700
C259        C  0.35975714  0.53395367  0.64648721     0.95100
Al260      Al  0.39397472  0.43634822  0.67847618     1.55600
O261        O  0.48624950  0.52016665  0.59962296    -0.76700
C262        C  0.47053452  0.35409954  0.68983246     0.99200
C263        C  0.43830508  0.50953294  0.72788406     0.94100
O264        O  0.45361410  0.53566423  0.70075806    -0.82000
O265        O  0.29747168  0.82283728  0.55210843    -0.81400
C266        C  0.13723145  0.89788509  0.63882298     0.97900
O267        O  0.16788869  0.91377518  0.61476289    -0.70600
O268        O  0.25734548  0.92005309  0.58454102    -0.74200
Al269      Al  0.19659461  0.87835100  0.57467228     1.49000
C270        C  0.29301704  0.91437255  0.60772243     0.93200
O271        O  0.28114278  0.78612526  0.65263502    -0.80400
O272        O  0.20255966  0.72633178  0.62648961    -0.73900
Al273      Al  0.28172878  0.80572976  0.60249857     1.90100
O274        O  0.20459341  0.80872250  0.67187338    -0.73000
O275        O  0.13193281  0.77287871  0.58910552    -0.72900
O276        O  0.12666073  0.85049688  0.63992944    -0.78500
O277        O  0.13112187  0.84727224  0.56060180    -0.76700
O278        O  0.21618043  0.82538655  0.60175505    -1.12900
O279        O  0.22424512  0.85004162  0.53103736    -0.72000
C280        C  0.27026385  0.83696355  0.52542714     0.98700
C281        C  0.24946221  0.79361226  0.67838246     0.95100
Al282      Al  0.17012192  0.79239588  0.62920921     1.55600
O283        O  0.30398976  0.87021718  0.61925334    -0.76700
C284        C  0.11259019  0.80248060  0.56589739     0.99200
C285        C  0.23898396  0.70760204  0.60780784     0.94100
O286        O  0.26582469  0.73692041  0.58754402    -0.82000
O287        O  0.26818003  0.78246939  0.91452409    -0.81400
C288        C  0.39967349  0.62332964  0.86352518     0.97900
O289        O  0.40987083  0.67079519  0.86372326    -0.70600
O290        O  0.33068315  0.70993723  0.83107949    -0.74200
Al291      Al  0.36464944  0.72785412  0.87375255     1.49000
C292        C  0.28534950  0.72373371  0.82456181     0.93200
O293        O  0.23156448  0.64810350  0.88542692    -0.80400
O294        O  0.31083842  0.66892141  0.97295710    -0.73900
Al295      Al  0.25348735  0.71305995  0.90068888     1.90100
O296        O  0.27975887  0.59860024  0.91936646    -0.73000
O297        O  0.40493234  0.67470548  0.94265687    -0.72900
O298        O  0.36907596  0.60644099  0.88748267    -0.78500
O299        O  0.40207385  0.74886925  0.91390489    -0.76700
O300        O  0.31916742  0.69425834  0.90149816    -1.12900
O301        O  0.33082454  0.79352090  0.87539788    -0.72000
C302        C  0.29406535  0.81197284  0.89387316     0.98700
C303        C  0.24275214  0.60425563  0.89734223     0.95100
Al304      Al  0.33979602  0.64155187  0.92862778     1.55600
O305        O  0.25353116  0.73078021  0.85028147    -0.76700
C306        C  0.42212646  0.72019501  0.93743098     0.99200
C307        C  0.26507447  0.68389578  0.97819668     0.94100
O308        O  0.23876876  0.69777425  0.95106958    -0.82000
O309        O  0.95849288  0.53987340  0.80281688    -0.81400
C310        C  0.87955762  0.38212961  0.89065089     0.97900
O311        O  0.86349053  0.41225441  0.86646201    -0.70600
O312        O  0.85851408  0.50171670  0.83555388    -0.74200
Al313      Al  0.89936892  0.44037887  0.82569673     1.49000
C314        C  0.86525096  0.53897646  0.85750226     0.93200
O315        O  0.99083547  0.52445975  0.90434233    -0.80400
O316        O  0.05098404  0.44529826  0.87846696    -0.73900
Al317      Al  0.97327488  0.52487840  0.85357296     1.90100
O318        O  0.96763272  0.44777485  0.92322320    -0.73000
O319        O  0.00437365  0.37565575  0.83950518    -0.72900
O320        O  0.92638168  0.36977068  0.89005823    -0.78500
O321        O  0.93055861  0.37471786  0.81071754    -0.76700
O322        O  0.95237892  0.45969712  0.85277815    -1.12900
O323        O  0.92777801  0.46776109  0.78187980    -0.72000
C324        C  0.94372417  0.51288956  0.77604428     0.98700
C325        C  0.98224715  0.49292811  0.93002472     0.95100
Al326      Al  0.98454765  0.41329795  0.88013715     1.55600
O327        O  0.90929877  0.54914726  0.86922041    -0.76700
C328        C  0.97606170  0.35763928  0.81493583     0.99200
C329        C  0.07029627  0.48125206  0.85974103     0.94100
O330        O  0.04163804  0.50761959  0.83922195    -0.82000
O331        O  0.98517188  0.52091581  0.16957413    -0.81400
C332        C  0.14844445  0.64534841  0.11367665     0.97900
O333        O  0.10137998  0.65680672  0.11467505    -0.70600
O334        O  0.05887377  0.57724143  0.08415392    -0.74200
Al335      Al  0.04344260  0.61317795  0.12660825     1.49000
C336        C  0.04381334  0.53202234  0.07815982     0.93200
O337        O  0.11696911  0.47632896  0.13976291    -0.80400
O338        O  0.10691911  0.55959705  0.22450371    -0.73900
Al339      Al  0.05369555  0.50241257  0.15513710     1.90100
O340        O  0.17203601  0.52592094  0.16790246    -0.73000
O341        O  0.10011459  0.65234865  0.19453575    -0.72900
O342        O  0.16480007  0.61468651  0.13733536    -0.78500
O343        O  0.02514783  0.65207585  0.16696555    -0.76700
O344        O  0.07612656  0.56721618  0.15416760    -1.12900
O345        O  0.97676723  0.58187475  0.12935111    -0.72000
C346        C  0.95687017  0.54662316  0.14838373     0.98700
C347        C  0.16258337  0.48760341  0.14753424     0.95100
Al348      Al  0.13123214  0.58680951  0.17922739     1.55600
O349        O  0.03544250  0.50113616  0.10433056    -0.76700
C350        C  0.05495615  0.67059750  0.19043360     0.99200
C351        C  0.08794635  0.51596332  0.23152963     0.94100
O352        O  0.06895782  0.48967421  0.20584000    -0.82000
C353        C  0.99491841  0.50640019  0.96816566    -0.05000
C354        C  0.03644022  0.54000476  0.97542566    -0.02100
C355        C  0.05570167  0.54392240  0.01093089     0.02900
C356        C  0.03122036  0.51780802  0.04017661    -0.05000
C357        C  0.99006180  0.48387604  0.03296543    -0.02100
C358        C  0.97108015  0.47955049  0.99736683     0.02900
C359        C  0.06010585  0.57084353  0.94674554     0.37500
C360        C  0.96673419  0.45304223  0.06179965     0.37500
C361        C  0.92457193  0.45002905  0.99167433     0.35900
C362        C  0.10339202  0.57179274  0.01657198     0.35900
N363        N  0.88678490  0.42723174  0.98819699    -0.38900
N364        N  0.14208516  0.59298159  0.02037063    -0.38900
N365        N  0.94837192  0.42786493  0.08449760    -0.38300
N366        N  0.07876355  0.59608325  0.92420995    -0.38300
C367        C  0.12477263  0.49769653  0.86599151    -0.05000
C368        C  0.15085595  0.52662236  0.83904874    -0.02100
C369        C  0.19276115  0.55814002  0.84872941     0.02900
C370        C  0.20986067  0.56030029  0.88536197    -0.05000
C371        C  0.18961871  0.52475881  0.91080235    -0.02100
C372        C  0.14741754  0.49317231  0.90115203     0.02900
C373        C  0.13403309  0.52461988  0.80136046     0.37500
C374        C  0.20929431  0.52350849  0.94775295     0.37500
C375        C  0.12561856  0.45906492  0.92860414     0.35900
C376        C  0.21710266  0.58961176  0.82086237     0.35900
N377        N  0.10852234  0.43199469  0.95066973    -0.38900
N378        N  0.23569769  0.61451864  0.79819002    -0.38900
N379        N  0.22511022  0.52241972  0.97719870    -0.38300
N380        N  0.12067408  0.52272817  0.77131069    -0.38300
C381        C  0.24041471  0.68240966  0.01604475    -0.05000
C382        C  0.19380083  0.70923573  0.02370500    -0.02100
C383        C  0.16588562  0.70054961  0.05668919     0.02900
C384        C  0.18358268  0.66464219  0.08306627    -0.05000
C385        C  0.23320496  0.64269846  0.07726968    -0.02100
C386        C  0.26082569  0.65095408  0.04416077     0.02900
C387        C  0.17321430  0.74555792  0.99748449     0.37500
C388        C  0.25632371  0.60998509  0.10476993     0.37500
C389        C  0.30947105  0.62442352  0.03888692     0.35900
C390        C  0.11813832  0.72838566  0.06269015     0.35900
N391        N  0.34816931  0.60307548  0.03488957    -0.38900
N392        N  0.08005021  0.75062427  0.06722197    -0.38900
N393        N  0.27521362  0.58394621  0.12649746    -0.38300
N394        N  0.15619610  0.77429527  0.97668817    -0.38300
C395        C  0.26227191  0.77894235  0.71609676    -0.05000
C396        C  0.29646415  0.73752629  0.72241028    -0.02100
C397        C  0.29996410  0.71622381  0.75738896     0.02900
C398        C  0.27202799  0.73784912  0.78686062    -0.05000
C399        C  0.23762369  0.77906334  0.78053657    -0.02100
C400        C  0.23412362  0.80044288  0.74558028     0.02900
C401        C  0.32780580  0.71566872  0.69324273     0.37500
C402        C  0.20562829  0.80023442  0.80960605     0.37500
C403        C  0.20298581  0.84635683  0.74071803     0.35900
C404        C  0.33034664  0.66987050  0.76224865     0.35900
N405        N  0.17854713  0.88316363  0.73746999    -0.38900
N406        N  0.35382309  0.63244117  0.76536964    -0.38900
N407        N  0.17950248  0.81700425  0.83247090    -0.38300
N408        N  0.35325355  0.69814911  0.67027657    -0.38300
C409        C  0.31665642  0.56739977  0.63410280    -0.05000
C410        C  0.28031581  0.58727026  0.65916875    -0.02100
C411        C  0.24951004  0.62988834  0.64933795     0.02900
C412        C  0.25521286  0.65294252  0.61419568    -0.05000
C413        C  0.28438430  0.62669543  0.58744324    -0.02100
C414        C  0.31547696  0.58458080  0.59740616     0.02900
C415        C  0.27711907  0.56643519  0.69587479     0.37500
C416        C  0.28216537  0.64289003  0.54959726     0.37500
C417        C  0.34699371  0.55952845  0.56979993     0.35900
C418        C  0.21495215  0.65153593  0.67664304     0.35900
N419        N  0.37202690  0.53991139  0.54756900    -0.38900
N420        N  0.18761237  0.66843945  0.69867815    -0.38900
N421        N  0.27978287  0.65542531  0.51933804    -0.38300
N422        N  0.27444968  0.54953526  0.72506658    -0.38300
C423        C  0.43819123  0.53296478  0.76603293    -0.05000
C424        C  0.46432652  0.57998770  0.77329230    -0.02100
C425        C  0.45502374  0.60777428  0.80613747     0.02900
C426        C  0.42042264  0.58862455  0.83323879    -0.05000
C427        C  0.40118953  0.53775547  0.82844483    -0.02100
C428        C  0.40914192  0.51073203  0.79512242     0.02900
C429        C  0.50082885  0.60079446  0.74694842     0.37500
C430        C  0.37226562  0.51257602  0.85744135     0.37500
C431        C  0.38567129  0.46028246  0.79105515     0.35900
C432        C  0.48040969  0.65714482  0.81095780     0.35900
N433        N  0.36686884  0.42010055  0.78805424    -0.38900
N434        N  0.50048556  0.69662754  0.81442018    -0.38900
N435        N  0.34942973  0.49203460  0.88047439    -0.38300
N436        N  0.53000303  0.61764539  0.72609727    -0.38300
C437        C  0.49603566  0.50159263  0.53631794    -0.05000
C438        C  0.47699816  0.47280693  0.50654456    -0.02100
C439        C  0.49971608  0.47733617  0.47183702     0.02900
C440        C  0.53956544  0.51365925  0.46582801    -0.05000
C441        C  0.55877214  0.54230866  0.49566197    -0.02100
C442        C  0.53637228  0.53743835  0.53042595     0.02900
C443        C  0.43200310  0.44022850  0.51075996     0.37500
C444        C  0.60357350  0.57522032  0.49153983     0.37500
C445        C  0.55614989  0.56925919  0.55989015     0.35900
C446        C  0.48083749  0.44471574  0.44254210     0.35900
N447        N  0.57199711  0.59504687  0.58304509    -0.38900
N448        N  0.46585444  0.41833914  0.41942740    -0.38900
N449        N  0.63976505  0.60089712  0.48930168    -0.38300
N450        N  0.39583173  0.41458941  0.51334083    -0.38300
C451        C  0.56837813  0.78611914  0.95582446    -0.05000
C452        C  0.56276717  0.73202062  0.95989768    -0.02100
C453        C  0.51345882  0.70913087  0.95890421     0.02900
C454        C  0.46951307  0.74055111  0.95531383    -0.05000
C455        C  0.47508618  0.79464619  0.95995595    -0.02100
C456        C  0.52450206  0.81737340  0.96020418     0.02900
C457        C  0.60811452  0.69961918  0.96221053     0.37500
C458        C  0.42991298  0.82746036  0.96109902     0.37500
C459        C  0.52970420  0.87291559  0.96177989     0.35900
C460        C  0.50887280  0.65349446  0.95740566     0.35900
N461        N  0.53387472  0.91724286  0.96328078    -0.38900
N462        N  0.50534659  0.60909976  0.95604849    -0.38900
N463        N  0.39385302  0.85355636  0.96149725    -0.38300
N464        N  0.64430916  0.67385940  0.96395716    -0.38300
C465        C  0.75891457  0.65812097  0.88867895    -0.05000
C466        C  0.75468485  0.63457195  0.85366401    -0.02100
C467        C  0.78648095  0.59239060  0.84417082     0.02900
C468        C  0.82223201  0.57324539  0.86948212    -0.05000
C469        C  0.81996013  0.59126190  0.90604619    -0.02100
C470        C  0.78759498  0.63274144  0.91568573     0.02900
C471        C  0.71983809  0.65471722  0.82642934     0.37500
C472        C  0.85156192  0.56794791  0.93391554     0.37500
C473        C  0.78313034  0.64889669  0.95353172     0.35900
C474        C  0.78474535  0.57101508  0.80759468     0.35900
N475        N  0.77883253  0.66125188  0.98377654    -0.38900
N476        N  0.78350337  0.55338491  0.77858701    -0.38900
N477        N  0.87659410  0.55015948  0.95658616    -0.38300
N478        N  0.69202964  0.67034602  0.80455750    -0.38300
C479        C  0.06428793  0.78442782  0.54857909    -0.05000
C480        C  0.05811791  0.73108969  0.54157440    -0.02100
C481        C  0.00864355  0.70865196  0.54223567     0.02900
C482        C  0.96501543  0.73988178  0.54887388    -0.05000
C483        C  0.97101255  0.79426710  0.54756748    -0.02100
C484        C  0.02052919  0.81645928  0.54865982     0.02900
C485        C  0.10315510  0.69850538  0.53725132     0.37500
C486        C  0.92619794  0.82759312  0.54786347     0.37500
C487        C  0.02581341  0.87147200  0.55466714     0.35900
C488        C  0.00373670  0.65312419  0.53953659     0.35900
N489        N  0.03003923  0.91523163  0.55988635    -0.38900
N490        N  0.00004987  0.60880127  0.53744832    -0.38900
N491        N  0.89045426  0.85412396  0.54825648    -0.38300
N492        N  0.13915772  0.67262234  0.53420329    -0.38300
C493        C  0.92393938  0.58643274  0.66924221    -0.05000
C494        C  0.96096512  0.60564927  0.69408252    -0.02100
C495        C  0.96967856  0.58056534  0.72801724     0.02900
C496        C  0.94202135  0.53514305  0.73767481    -0.05000
C497        C  0.90991301  0.51270969  0.71061381    -0.02100
C498        C  0.90254618  0.53707099  0.67648537     0.02900
C499        C  0.99058717  0.65129340  0.68486481     0.37500
C500        C  0.88070538  0.46611815  0.71812486     0.37500
C501        C  0.87168187  0.51076512  0.64928645     0.35900
C502        C  0.00588081  0.60326377  0.75334283     0.35900
N503        N  0.84739246  0.48931439  0.62770498    -0.38900
N504        N  0.03444250  0.62192411  0.77352675    -0.38900
N505        N  0.85681805  0.42931470  0.72383044    -0.38300
N506        N  0.01452199  0.68746634  0.67744380    -0.38300
C507        C  0.76736523  0.72456733  0.71791647    -0.05000
C508        C  0.80117742  0.71038084  0.74629184    -0.02100
C509        C  0.80014297  0.73668586  0.77982732     0.02900
C510        C  0.76442631  0.77715870  0.78556315    -0.05000
C511        C  0.73100714  0.79124051  0.75691983    -0.02100
C512        C  0.72930372  0.76188660  0.72491111     0.02900
C513        C  0.83507947  0.66650256  0.74202221     0.37500
C514        C  0.69905334  0.83697598  0.75945728     0.37500
C515        C  0.68565255  0.76795788  0.70097631     0.35900
C516        C  0.83578676  0.72094384  0.80812035     0.35900
N517        N  0.64915126  0.77198795  0.68342667    -0.38900
N518        N  0.86437868  0.70805191  0.83036274    -0.38900
N519        N  0.67383667  0.87361395  0.76100772    -0.38300
N520        N  0.86179032  0.63113989  0.73929378    -0.38300
C521        C  0.71412672  0.54458738  0.61888710    -0.05000
C522        C  0.69552407  0.54413910  0.65535696    -0.02100
C523        C  0.64940863  0.51834909  0.66446504     0.02900
C524        C  0.62181093  0.49165325  0.63732552    -0.00200
C525        C  0.64560713  0.48463334  0.60235980    -0.02100
C526        C  0.69178314  0.51095378  0.59338440     0.02900
C527        C  0.72292525  0.57234619  0.68333610     0.37500
C528        C  0.62129003  0.45376228  0.57430283     0.37500
C529        C  0.71454130  0.50570958  0.55727625     0.35900
C530        C  0.62987518  0.52052451  0.70166602     0.35900
N531        N  0.73304850  0.50096581  0.52862823    -0.38900
N532        N  0.61436780  0.52230997  0.73134755    -0.38900
N533        N  0.60228378  0.42928645  0.55166306    -0.38300
N534        N  0.74474290  0.59493414  0.70561482    -0.38300
C535        C  0.69150277  0.65807907  0.41957730    -0.05000
C536        C  0.67848859  0.69850939  0.44408425    -0.02100
C537        C  0.70574617  0.70510001  0.47721119     0.02900
C538        C  0.74435725  0.66964009  0.48761074    -0.05000
C539        C  0.75997080  0.63180642  0.46196171    -0.02100
C540        C  0.73573451  0.62797018  0.42758862     0.02900
C541        C  0.63705183  0.73373400  0.43547097     0.37500
C542        C  0.79865829  0.59395903  0.47156212     0.37500
C543        C  0.75696732  0.59231622  0.40093491     0.35900
C544        C  0.69449428  0.74921051  0.50021433     0.35900
N545        N  0.77518327  0.56462962  0.37970606    -0.38900
N546        N  0.68580528  0.78502720  0.51803451    -0.38900
N547        N  0.82908535  0.56335176  0.47911911    -0.38300
N548        N  0.60390402  0.76181308  0.42877670    -0.38300
C549        C  0.60867571  0.44081972  0.16651458    -0.05000
C550        C  0.63184438  0.48948619  0.17329429    -0.02100
C551        C  0.62389657  0.51519384  0.20701969     0.02900
C552        C  0.59237057  0.49299276  0.23480252    -0.05000
C553        C  0.56334121  0.44845899  0.22565029    -0.02100
C554        C  0.57062352  0.42339892  0.19156616     0.02900
C555        C  0.66453800  0.51380369  0.14591973     0.37500
C556        C  0.52558337  0.42777395  0.25108961     0.37500
C557        C  0.53765846  0.38032766  0.18208026     0.35900
C558        C  0.65012880  0.56388664  0.21293362     0.35900
N559        N  0.51104521  0.34632569  0.17434208    -0.38900
N560        N  0.67102862  0.60278322  0.21724219    -0.38900
N561        N  0.49555101  0.41072280  0.27120992    -0.38300
N562        N  0.69038846  0.53360374  0.12420288    -0.38300
C563        C  0.81823544  0.46734141  0.12016670    -0.05000
C564        C  0.83226371  0.47125078  0.15734686    -0.02100
C565        C  0.87446972  0.50208255  0.16776844     0.02900
C566        C  0.90250858  0.52994970  0.14118036    -0.05000
C567        C  0.88141641  0.53414129  0.10546686    -0.02100
C568        C  0.84005048  0.50210510  0.09489177     0.02900
C569        C  0.80282910  0.44366276  0.18487492     0.37500
C570        C  0.90328946  0.56915700  0.07866200     0.37500
C571        C  0.82224548  0.50279388  0.05743505     0.35900
C572        C  0.88838385  0.50591106  0.20593304     0.35900
N573        N  0.80774584  0.50344915  0.02764852    -0.38900
N574        N  0.89895157  0.50955279  0.23645815    -0.38900
N575        N  0.92016142  0.59720620  0.05711718    -0.38300
N576        N  0.77871258  0.42185374  0.20659390    -0.38300
C577        C  0.79066353  0.34724003  0.98936905    -0.05000
C578        C  0.83388094  0.31681726  0.97954242    -0.02100
C579        C  0.85998601  0.32474352  0.94580041     0.02900
C580        C  0.84476231  0.36475234  0.92166128    -0.05000
C581        C  0.79946177  0.39293878  0.93060326    -0.02100
C582        C  0.77255127  0.38390009  0.96372088     0.02900
C583        C  0.85283115  0.27788913  0.00445097     0.37500
C584        C  0.78125982  0.43412367  0.90722211     0.37500
C585        C  0.72781814  0.41554533  0.97196805     0.35900
C586        C  0.90341859  0.29196621  0.93665476     0.35900
N587        N  0.69219126  0.44086881  0.97821077    -0.38900
N588        N  0.93812599  0.26583026  0.92952806    -0.38900
N589        N  0.76589082  0.46717150  0.88918690    -0.38300
N590        N  0.86862035  0.24720154  0.02431333    -0.38300
C591        C  0.71783324  0.45784931  0.36761907    -0.05000
C592        C  0.75745705  0.43982879  0.34448363    -0.02100
C593        C  0.79068899  0.40020281  0.35660745     0.02900
C594        C  0.78206341  0.37609106  0.39107247    -0.05000
C595        C  0.74879117  0.40078787  0.41613958    -0.02100
C596        C  0.71791960  0.44221298  0.40464432     0.02900
C597        C  0.76329878  0.46096239  0.30807883     0.37500
C598        C  0.74612686  0.38372792  0.45383948     0.37500
C599        C  0.68720891  0.46964846  0.43137610     0.35900
C600        C  0.83376119  0.38533403  0.33361744     0.35900
N601        N  0.66388862  0.49154849  0.45340134    -0.38900
N602        N  0.86888325  0.37505827  0.31545423    -0.38900
N603        N  0.74395924  0.37021744  0.48392014    -0.38300
N604        N  0.76814266  0.47837515  0.27918490    -0.38300
C605        C  0.74928956  0.29432522  0.21895251    -0.05000
C606        C  0.70929661  0.28273967  0.24435050    -0.02100
C607        C  0.72120796  0.26279419  0.27893864     0.02900
C608        C  0.77315783  0.25617703  0.28924907    -0.05000
C609        C  0.81292489  0.27180729  0.26488263    -0.02100
C610        C  0.80099113  0.29114962  0.23021226     0.02900
C611        C  0.65541429  0.28986358  0.23527291     0.37500
C612        C  0.86663308  0.27018884  0.27534734     0.37500
C613        C  0.84248924  0.30958071  0.20674087     0.35900
C614        C  0.67926287  0.24801662  0.30332513     0.35900
N615        N  0.87561703  0.32432085  0.18821826    -0.38900
N616        N  0.64559309  0.23667286  0.32256541    -0.38900
N617        N  0.90963556  0.26975295  0.28320448    -0.38300
N618        N  0.61238380  0.29549764  0.22846765    -0.38300
C619        C  0.99744529  0.31316037  0.79392463    -0.05000
C620        C  0.05162554  0.30965979  0.78951973    -0.02100
C621        C  0.07578048  0.26102392  0.78889575     0.02900
C622        C  0.04544832  0.21607314  0.79021368    -0.05000
C623        C  0.99178664  0.22046428  0.78419824    -0.02100
C624        C  0.96742635  0.26891456  0.78729005     0.02900
C625        C  0.08274548  0.35611935  0.78938769     0.37500
C626        C  0.96123647  0.17438516  0.77847438     0.37500
C627        C  0.91175788  0.27199329  0.78765477     0.35900
C628        C  0.13125998  0.25772409  0.79160663     0.35900
N629        N  0.86731363  0.27428638  0.78806474    -0.38900
N630        N  0.17553025  0.25530482  0.79402386    -0.38900
N631        N  0.93699522  0.13756534  0.77387523    -0.38300
N632        N  0.10736248  0.39327565  0.78953792    -0.38300
C633        C  0.91411990  0.02587178  0.85971180    -0.05000
C634        C  0.88912241  0.99481048  0.83352467    -0.02100
C635        C  0.84667318  0.96390702  0.84384791     0.02900
C636        C  0.82927276  0.96287297  0.88060675    -0.05000
C637        C  0.84844964  0.00003825  0.90509283    -0.02100
C638        C  0.89038136  0.03179809  0.89467412     0.02900
C639        C  0.90691008  0.99456957  0.79587230     0.37500
C640        C  0.82704100  0.00394428  0.94167177     0.37500
C641        C  0.91071338  0.06784487  0.92122086     0.35900
C642        C  0.82029136  0.93356908  0.81642096     0.35900
N643        N  0.92676376  0.09650673  0.94251829    -0.38900
N644        N  0.79887134  0.90990815  0.79447655    -0.38900
N645        N  0.80977555  0.00755668  0.97078303    -0.38300
N646        N  0.92069992  0.99451784  0.76574155    -0.38300
C647        C  0.27653554  0.86634199  0.88715341    -0.05000
C648        C  0.24524893  0.89168431  0.91319649    -0.02100
C649        C  0.21514524  0.93440064  0.90292030     0.02900
C650        C  0.21549160  0.95230310  0.86628034    -0.05000
C651        C  0.25267705  0.93230494  0.84183649    -0.02100
C652        C  0.28377675  0.89010683  0.85237399     0.02900
C653        C  0.24391304  0.87386247  0.95074155     0.37500
C654        C  0.25690005  0.95279305  0.80509352     0.37500
C655        C  0.32120679  0.87016280  0.82636416     0.35900
C656        C  0.18337753  0.95966348  0.93034907     0.35900
N657        N  0.35119880  0.85470098  0.80556924    -0.38900
N658        N  0.15818376  0.97952234  0.95239021    -0.38900
N659        N  0.26039921  0.96917055  0.77579267    -0.38300
N660        N  0.24304865  0.85980619  0.98072317    -0.38300
C661        C  0.11741856  0.93394143  0.66800390    -0.05000
C662        C  0.14266903  0.98156963  0.67478807    -0.02100
C663        C  0.13469691  0.00811587  0.70806971     0.02900
C664        C  0.10022806  0.98845296  0.73498393    -0.05000
C665        C  0.07061643  0.94422866  0.72624841    -0.02100
C666        C  0.07835296  0.91798682  0.69276258     0.02900
C667        C  0.17839241  0.00344362  0.64827643     0.37500
C668        C  0.03319800  0.92397380  0.75212275     0.37500
C669        C  0.04572991  0.87429336  0.68410742     0.35900
C670        C  0.16523546  0.05400568  0.71498355     0.35900
N671        N  0.01947958  0.83964171  0.67727599    -0.38900
N672        N  0.18990824  0.09039197  0.72009251    -0.38900
N673        N  0.00393327  0.90713413  0.77290214    -0.38300
N674        N  0.20670444  0.02141931  0.62730350    -0.38300
C675        C  0.99242032  0.81701048  0.20806099    -0.05000
C676        C  0.96072433  0.77384000  0.21470442    -0.02100
C677        C  0.98280926  0.72416830  0.21551803     0.02900
C678        C  0.03643165  0.71784221  0.20953083    -0.05000
C679        C  0.06853808  0.76144280  0.21173407    -0.02100
C680        C  0.04648902  0.81109067  0.21135547     0.02900
C681        C  0.90540435  0.77967559  0.21756688     0.37500
C682        C  0.12398243  0.75566592  0.21032441     0.37500
C683        C  0.07970980  0.85605335  0.21131930     0.35900
C684        C  0.94991235  0.67921316  0.21918983     0.35900
N685        N  0.10621839  0.89188817  0.21105629    -0.38900
N686        N  0.92375808  0.64328957  0.22184510    -0.38900
N687        N  0.16820679  0.75088678  0.20918067    -0.38300
N688        N  0.86125904  0.78427546  0.22011415    -0.38300
C689        C  0.84398112  0.86621872  0.08181062    -0.05000
C690        C  0.79986216  0.89491938  0.07161183    -0.02100
C691        C  0.77657250  0.88721179  0.03727352     0.02900
C692        C  0.79426792  0.84815936  0.01311486    -0.05000
C693        C  0.83560873  0.81647964  0.02456857    -0.02100
C694        C  0.85983517  0.82510532  0.05867755     0.02900
C695        C  0.77878004  0.93447173  0.09543813     0.37500
C696        C  0.85505499  0.77604417  0.00081573     0.37500
C697        C  0.90125392  0.79120171  0.06977224     0.35900
C698        C  0.73768686  0.92373828  0.02565189     0.35900
N699        N  0.93417200  0.76406427  0.07858988    -0.38900
N700        N  0.70732274  0.95346806  0.01644526    -0.38900
N701        N  0.87137451  0.74420595  0.98185353    -0.38300
N702        N  0.76103042  0.96579256  0.11417208    -0.38300
C703        C  0.81490200  0.07613442  0.13377602    -0.05000
C704        C  0.81270101  0.09399903  0.09724421    -0.02100
C705        C  0.78145497  0.13648198  0.08806524     0.02900
C706        C  0.75266092  0.16228064  0.11535897    -0.05000
C707        C  0.74928502  0.13958378  0.15067873    -0.02100
C708        C  0.78018524  0.09663808  0.15970341     0.02900
C709        C  0.84323457  0.06922517  0.06895610     0.37500
C710        C  0.71656121  0.16162195  0.17882417     0.37500
C711        C  0.77885060  0.07600163  0.19651637     0.35900
C712        C  0.77919124  0.15384472  0.05044745     0.35900
N713        N  0.77781606  0.05929530  0.22579749    -0.38900
N714        N  0.77703588  0.16753366  0.02043480    -0.38900
N715        N  0.69034630  0.17827920  0.20159883    -0.38300
N716        N  0.86733744  0.04990781  0.04607201    -0.38300
C717        C  0.93593514  0.04222610  0.26532803    -0.05000
C718        C  0.91322041  0.01652445  0.29581871    -0.02100
C719        C  0.90493526  0.04280542  0.32945545     0.02900
C720        C  0.91707164  0.09569942  0.33311955    -0.05000
C721        C  0.94846906  0.11794729  0.30533467    -0.02100
C722        C  0.95744065  0.09180961  0.27180623     0.02900
C723        C  0.89902489  0.96255762  0.29347756     0.37500
C724        C  0.97441565  0.16669411  0.31155998     0.37500
C725        C  0.99026951  0.11614550  0.24458182     0.35900
C726        C  0.88872391  0.01394017  0.36131925     0.35900
N727        N  0.01671684  0.13566987  0.22308448    -0.38900
N728        N  0.87788495  0.99039984  0.38705858    -0.38900
N729        N  0.99600830  0.20500545  0.31659314    -0.38300
N730        N  0.88796446  0.91943668  0.29191186    -0.38300
C731        C  0.99363134  0.01280914  0.03480207    -0.05000
C732        C  0.97307059  0.98453363  0.00531222    -0.02100
C733        C  0.99494731  0.98834899  0.97023100     0.02900
C734        C  0.03548397  0.02368308  0.96347459    -0.05000
C735        C  0.05528176  0.05299923  0.99285355    -0.02100
C736        C  0.03371637  0.04862230  0.02802884     0.02900
C737        C  0.92725372  0.95336640  0.01025560     0.37500
C738        C  0.09963888  0.08636399  0.98771210     0.37500
C739        C  0.05383833  0.08098323  0.05701319     0.35900
C740        C  0.97488880  0.95561003  0.94142790     0.35900
N741        N  0.06986767  0.10721777  0.07985425    -0.38900
N742        N  0.95899964  0.92897050  0.91876972    -0.38900
N743        N  0.13499471  0.11297932  0.98419145    -0.38300
N744        N  0.89025661  0.92906553  0.01334759    -0.38300
C745        C  0.48992462  0.30946463  0.71108429    -0.05000
C746        C  0.54324786  0.30613926  0.71862160    -0.02100
C747        C  0.56750127  0.25746917  0.71958000     0.02900
C748        C  0.53751941  0.21276669  0.71521593    -0.05000
C749        C  0.48349931  0.21691236  0.71999773    -0.02100
C750        C  0.45936774  0.26497702  0.71531438     0.02900
C751        C  0.57329851  0.35279197  0.72295547     0.37500
C752        C  0.45265532  0.17077139  0.72493242     0.37500
C753        C  0.40429275  0.26708615  0.70962671     0.35900
C754        C  0.62289788  0.25370786  0.72219855     0.35900
N755        N  0.36046937  0.26862791  0.70448271    -0.38900
N756        N  0.66714732  0.25068871  0.72455648    -0.38900
N757        N  0.42817777  0.13392003  0.72888117    -0.38300
N758        N  0.59709331  0.39005621  0.72684217    -0.38300
C759        C  0.40242066  0.02896993  0.64335478    -0.05000
C760        C  0.38012880  0.99490428  0.66899072    -0.02100
C761        C  0.34165281  0.95975175  0.65807981     0.02900
C762        C  0.32416112  0.95896238  0.62143199    -0.05000
C763        C  0.33957276  0.99930689  0.59795804    -0.02100
C764        C  0.37782337  0.03474337  0.60909457     0.02900
C765        C  0.39622591  0.99668272  0.70683707     0.37500
C766        C  0.31844194  0.00276680  0.56152276     0.37500
C767        C  0.39176556  0.07650072  0.58478853     0.35900
C768        C  0.32050853  0.92441801  0.68489950     0.35900
N769        N  0.40155039  0.11028522  0.56538532    -0.38900
N770        N  0.30441033  0.89676902  0.70693203    -0.38900
N771        N  0.30125893  0.00531452  0.53253461    -0.38300
N772        N  0.40844346  0.99869064  0.73712576    -0.38300
C773        C  0.73805228  0.19176504  0.51764172    -0.05000
C774        C  0.68925269  0.21519337  0.52408144    -0.02100
C775        C  0.66078552  0.20481554  0.55655778     0.02900
C776        C  0.68108941  0.17213256  0.58395528    -0.05000
C777        C  0.73384155  0.15899650  0.58090774    -0.02100
C778        C  0.76151896  0.16685171  0.54777870     0.02900
C779        C  0.66849001  0.25179444  0.49813629     0.37500
C780        C  0.76119176  0.14175294  0.61293705     0.37500
C781        C  0.81454398  0.14976356  0.54555859     0.35900
C782        C  0.61166635  0.23025116  0.56212511     0.35900
N783        N  0.85689525  0.13620490  0.54406382    -0.38900
N784        N  0.57299634  0.25149110  0.56655765    -0.38900
N785        N  0.78330348  0.12995666  0.63889015    -0.38300
N786        N  0.65204456  0.28147930  0.47777473    -0.38300
C787        C  0.75002089  0.84768302  0.61731543    -0.05000
C788        C  0.69541426  0.84673560  0.61772966    -0.02100
C789        C  0.66724161  0.88868384  0.63152853     0.02900
C790        C  0.69140204  0.93656927  0.63866662    -0.05000
C791        C  0.74580574  0.93825062  0.63821640    -0.02100
C792        C  0.77494188  0.89350819  0.62894971     0.02900
C793        C  0.66638511  0.80220837  0.60542609     0.37500
C794        C  0.77213127  0.98527231  0.64796105     0.37500
C795        C  0.83056790  0.89518552  0.63086628     0.35900
C796        C  0.61342503  0.88031639  0.64115518     0.35900
N797        N  0.87495479  0.89661508  0.63274792    -0.38900
N798        N  0.57094685  0.87240176  0.64903241    -0.38900
N799        N  0.79400686  0.02226734  0.65610323    -0.38300
N800        N  0.64132929  0.76782727  0.59607624    -0.38300
C801        C  0.62076726  0.93614219  0.83068083    -0.05000
C802        C  0.65021714  0.97920347  0.81893388    -0.02100
C803        C  0.64028865  0.00336412  0.78504215     0.02900
C804        C  0.59860492  0.98733207  0.76278782    -0.05000
C805        C  0.56663114  0.94697893  0.77598164    -0.02100
C806        C  0.57704008  0.92244028  0.80985361     0.02900
C807        C  0.69158649  0.99919847  0.84124288     0.37500
C808        C  0.52345292  0.92940863  0.75452368     0.37500
C809        C  0.54133563  0.88416982  0.82392705     0.35900
C810        C  0.67629253  0.04231037  0.77217168     0.35900
N811        N  0.51264389  0.85413663  0.83550836    -0.38900
N812        N  0.70547160  0.07294881  0.76211640    -0.38900
N813        N  0.48931142  0.91439542  0.73743637    -0.38300
N814        N  0.72404264  0.01642420  0.85893366    -0.38300
C815        C  0.49114898  0.81312772  0.29350058    -0.05000
C816        C  0.54499732  0.80724829  0.28828679    -0.02100
C817        C  0.56764996  0.75784100  0.28972662     0.02900
C818        C  0.53645379  0.71434081  0.29641446    -0.05000
C819        C  0.48240182  0.71948392  0.29280983    -0.02100
C820        C  0.45969857  0.76884673  0.29156776     0.02900
C821        C  0.57756613  0.85235786  0.28433362     0.37500
C822        C  0.44986242  0.67399806  0.29278376     0.37500
C823        C  0.40412369  0.77357455  0.29196968     0.35900
C824        C  0.62306533  0.75259245  0.28727781     0.35900
N825        N  0.35977704  0.77732408  0.29228351    -0.38900
N826        N  0.66727799  0.74833140  0.28507481    -0.38900
N827        N  0.42387957  0.63777799  0.29286901    -0.38300
N828        N  0.60357699  0.88834564  0.28145454    -0.38300
C829        C  0.34401851  0.86053457  0.41875203    -0.05000
C830        C  0.36113326  0.82078648  0.44231309    -0.02100
C831        C  0.33586807  0.81130281  0.47621426     0.02900
C832        C  0.29321010  0.84161628  0.48751551    -0.05000
C833        C  0.27385751  0.87872003  0.46268982    -0.02100
C834        C  0.29791280  0.88689413  0.42842588     0.02900
C835        C  0.40410746  0.78843254  0.43149490     0.37500
C836        C  0.23056353  0.91136521  0.47268237     0.37500
C837        C  0.27446965  0.92361145  0.40370100     0.35900
C838        C  0.35400704  0.76979733  0.49925113     0.35900
N839        N  0.25474657  0.95244108  0.38425052    -0.38900
N840        N  0.36874202  0.73667740  0.51749494    -0.38900
N841        N  0.19621860  0.93773701  0.48027323    -0.38300
N842        N  0.43820894  0.76236631  0.42286239    -0.38300
C843        C  0.60275107  0.02739175  0.36305198    -0.05000
C844        C  0.64861378  0.00200737  0.37365440    -0.02100
C845        C  0.69076202  0.03071380  0.38765965     0.02900
C846        C  0.68631111  0.08451706  0.39273383    -0.05000
C847        C  0.63792983  0.10766985  0.38728091    -0.02100
C848        C  0.59888718  0.08128015  0.36908985     0.02900
C849        C  0.65294049  0.94661722  0.36946830     0.37500
C850        C  0.62650273  0.15810022  0.40280584     0.37500
C851        C  0.55498432  0.11148542  0.35759520     0.35900
C852        C  0.73679611  0.00426577  0.39898662     0.35900
N853        N  0.52156654  0.13805622  0.34884497    -0.38900
N854        N  0.77251060  0.98203466  0.40896869    -0.38900
N855        N  0.61656294  0.19777560  0.41542458    -0.38300
N856        N  0.65635282  0.90239785  0.36623844    -0.38300
C857        C  0.48879016  0.00733224  0.46467107    -0.05000
C858        C  0.50884537  0.96822347  0.48769416    -0.02100
C859        C  0.52756457  0.98066530  0.52249726     0.02900
C860        C  0.52453360  0.03162897  0.53560399    -0.05000
C861        C  0.50566703  0.07097814  0.51237308    -0.02100
C862        C  0.48729776  0.05874494  0.47737157     0.02900
C863        C  0.51157209  0.91478360  0.47596290     0.37500
C864        C  0.50437427  0.12444233  0.52402127     0.37500
C865        C  0.46519019  0.09930100  0.45509478     0.35900
C866        C  0.55296961  0.94114205  0.54384279     0.35900
N867        N  0.44751351  0.13163908  0.43746723    -0.38900
N868        N  0.57365803  0.90952459  0.56040035    -0.38900
N869        N  0.50306564  0.16729088  0.53268901    -0.38300
N870        N  0.51356805  0.87197744  0.46719616    -0.38300
C871        C  0.46528379  0.24449198  0.04129400    -0.05000
C872        C  0.47032413  0.29858626  0.03706312    -0.02100
C873        C  0.51924892  0.32179720  0.03922947     0.02900
C874        C  0.56321480  0.29040692  0.04248398    -0.05000
C875        C  0.55840307  0.23680115  0.03607262    -0.02100
C876        C  0.50936997  0.21350035  0.03658682     0.02900
C877        C  0.42482055  0.33054324  0.03365392     0.37500
C878        C  0.60419171  0.20524461  0.03231609     0.37500
C879        C  0.50512064  0.15785290  0.03603321     0.35900
C880        C  0.52325818  0.37732515  0.04262451     0.35900
N881        N  0.50188381  0.11340335  0.03567496    -0.38900
N882        N  0.52634871  0.42158995  0.04566567    -0.38900
N883        N  0.64086666  0.18031022  0.02938787    -0.38300
N884        N  0.38851199  0.35595463  0.03089044    -0.38300
C885        C  0.26513262  0.36863837  0.10800718    -0.05000
C886        C  0.22038871  0.38362221  0.08875486    -0.02100
C887        C  0.19434503  0.42895924  0.09817140     0.02900
C888        C  0.20392214  0.45393951  0.13167060    -0.05000
C889        C  0.24946119  0.44136191  0.15037977    -0.02100
C890        C  0.28156491  0.40090187  0.13731359     0.02900
C891        C  0.19541790  0.35035827  0.06236695     0.37500
C892        C  0.26255856  0.46845541  0.18365311     0.37500
C893        C  0.33016894  0.39176317  0.15530374     0.35900
C894        C  0.15777007  0.44947507  0.07241403     0.35900
N895        N  0.36911798  0.38482652  0.16955047    -0.38900
N896        N  0.13033894  0.46381060  0.05000059    -0.38900
N897        N  0.27309054  0.48997852  0.21025793    -0.38300
N898        N  0.17248527  0.32418611  0.04275226    -0.38300
C899        C  0.41965133  0.04315028  0.23725517    -0.05000
C900        C  0.38188084  0.02662668  0.21218916    -0.02100
C901        C  0.37604386  0.05146802  0.17805205     0.02900
C902        C  0.40514800  0.09636018  0.16911740    -0.05000
C903        C  0.44418857  0.11180182  0.19376332    -0.02100
C904        C  0.45192905  0.08489223  0.22703544     0.02900
C905        C  0.34645005  0.98551416  0.22203437     0.37500
C906        C  0.47759161  0.15496333  0.18492091     0.37500
C907        C  0.49452508  0.09955289  0.25013146     0.35900
C908        C  0.33940226  0.02989657  0.15254666     0.35900
N909        N  0.52912392  0.11139105  0.26796957    -0.38900
N910        N  0.31070122  0.01157231  0.13230924    -0.38900
N911        N  0.50423532  0.18937711  0.17799946    -0.38300
N912        N  0.31782481  0.95307940  0.22972505    -0.38300
C913        C  0.11915561  0.00734234  0.13555099    -0.05000
C914        C  0.14602815  0.03709989  0.16145886    -0.02100
C915        C  0.18888346  0.06686099  0.15049674     0.02900
C916        C  0.20474952  0.06796081  0.11341052    -0.05000
C917        C  0.18344206  0.03206343  0.08896070    -0.02100
C918        C  0.14105328  0.00147470  0.09994579     0.02900
C919        C  0.12956318  0.03741040  0.19940221     0.37500
C920        C  0.20282389  0.02841715  0.05183433     0.37500
C921        C  0.11833308  0.96700610  0.07327950     0.35900
C922        C  0.21694053  0.09638969  0.17750384     0.35900
N923        N  0.10049040  0.93971514  0.05179562    -0.38900
N924        N  0.23966249  0.11944482  0.19910431    -0.38900
N925        N  0.21783077  0.02442668  0.02215653    -0.38300
N926        N  0.11668747  0.03757507  0.22972759    -0.38300
C927        C  0.19578199  0.16197077  0.91368109    -0.05000
C928        C  0.19109751  0.21042827  0.93116617    -0.02100
C929        C  0.22004950  0.22126722  0.96301699     0.02900
C930        C  0.24845876  0.18190524  0.98020344    -0.05000
C931        C  0.25769417  0.13596724  0.96052253    -0.02100
C932        C  0.23393828  0.12754721  0.92658091     0.02900
C933        C  0.15935344  0.25018703  0.91516216     0.37500
C934        C  0.29134259  0.09649042  0.97504873     0.37500
C935        C  0.25074857  0.08392047  0.90494414     0.35900
C936        C  0.22803523  0.27409467  0.97413627     0.35900
N937        N  0.26682190  0.05014663  0.88774348    -0.38900
N938        N  0.23704896  0.31662821  0.98105930    -0.38900
N939        N  0.31820960  0.06479629  0.98622750    -0.38300
N940        N  0.13425099  0.28207508  0.90231059    -0.38300
C941        C  0.06312180  0.28253437  0.45936330    -0.05000
C942        C  0.05820139  0.22820260  0.46248488    -0.02100
C943        C  0.00913028  0.20506623  0.46131625     0.02900
C944        C  0.96505094  0.23650628  0.46046757    -0.05000
C945        C  0.97038913  0.28980632  0.46794507    -0.02100
C946        C  0.01922684  0.31333806  0.46553133     0.02900
C947        C  0.10375271  0.19593893  0.46315171     0.37500
C948        C  0.92488240  0.32103690  0.47428151     0.37500
C949        C  0.02297105  0.36902681  0.46468489     0.35900
C950        C  0.00469556  0.14982658  0.45628615     0.35900
N951        N  0.02573797  0.41348830  0.46358707    -0.38900
N952        N  0.00120872  0.10580994  0.45190897    -0.38900
N953        N  0.88846603  0.34568550  0.47937603    -0.38300
N954        N  0.14000903  0.17015186  0.46360027    -0.38300
C955        C  0.11180811  0.43844307  0.33633302    -0.05000
C956        C  0.13859616  0.48472683  0.32773687    -0.02100
C957        C  0.12833812  0.51202072  0.29506443     0.02900
C958        C  0.09118102  0.49373614  0.26983873    -0.05000
C959        C  0.05990099  0.45151460  0.28085082    -0.02100
C960        C  0.07003319  0.42427473  0.31365435     0.02900
C961        C  0.17807877  0.50458412  0.35183222     0.37500
C962        C  0.01619187  0.43621647  0.25896126     0.37500
C963        C  0.03640520  0.38203168  0.32413991     0.35900
C964        C  0.15755248  0.55860160  0.28761500     0.35900
N965        N  0.00936680  0.34852236  0.33246489    -0.38900
N966        N  0.18079717  0.59588766  0.28215988    -0.38900
N967        N  0.98114185  0.42370488  0.24180451    -0.38300
N968        N  0.20937403  0.52097710  0.37091721    -0.38300
C969        C  0.30373784  0.06605553  0.36960248    -0.05000
C970        C  0.30161971  0.08460309  0.40600555    -0.02100
C971        C  0.27314174  0.12933406  0.41463452     0.02900
C972        C  0.24678939  0.15609737  0.38691697    -0.05000
C973        C  0.24149527  0.13184389  0.35224585    -0.02100
C974        C  0.26971267  0.08679185  0.34380023     0.02900
C975        C  0.32967506  0.05815220  0.43449714     0.37500
C976        C  0.20963476  0.15407838  0.32409617     0.37500
C977        C  0.26608664  0.06390931  0.30774625     0.35900
C978        C  0.27112172  0.14785085  0.45201533     0.35900
N979        N  0.26280201  0.04544223  0.27908803    -0.38900
N980        N  0.26902983  0.16238232  0.48188050    -0.38900
N981        N  0.18409189  0.17062573  0.30122889    -0.38300
N982        N  0.35195939  0.03696999  0.45720438    -0.38300
C983        C  0.26895658  0.25144065  0.21051176    -0.05000
C984        C  0.21799189  0.25413050  0.22372580    -0.02100
C985        C  0.20765452  0.27469201  0.25863892     0.02900
C986        C  0.24879420  0.28840488  0.28230160    -0.05000
C987        C  0.29970021  0.28641035  0.26886576    -0.02100
C988        C  0.30977800  0.26889308  0.23316737     0.02900
C989        C  0.17602917  0.23300866  0.20237700     0.37500
C990        C  0.34219146  0.30411393  0.29123790     0.37500
C991        C  0.36275059  0.27012832  0.22022402     0.35900
C992        C  0.15419259  0.28047635  0.26975736     0.35900
N993        N  0.40526705  0.27134953  0.21062963    -0.38900
N994        N  0.11141219  0.28528966  0.27807726    -0.38900
N995        N  0.37612582  0.31811640  0.30893780    -0.38300
N996        N  0.14265475  0.21558137  0.18567496    -0.38300
C997        C  0.32358412  0.46129283  0.38579007    -0.05000
C998        C  0.33951628  0.46621241  0.34891253    -0.02100
C999        C  0.38365159  0.49536166  0.33962225     0.02900
C1000       C  0.41123521  0.52186992  0.36691836    -0.05000
C1001       C  0.38897989  0.52498768  0.40258271    -0.02100
C1002       C  0.34606709  0.49384752  0.41212232     0.02900
C1003       C  0.30961170  0.44194322  0.32035333     0.37500
C1004       C  0.41079926  0.55850767  0.43017900     0.37500
C1005       C  0.32669677  0.49368661  0.44937866     0.35900
C1006       C  0.40022644  0.49856964  0.30180936     0.35900
N1007       N  0.31094931  0.49380124  0.47903463    -0.38900
N1008       N  0.41328061  0.50143563  0.27159090    -0.38900
N1009       N  0.42753894  0.58556998  0.45224316    -0.38300
N1010       N  0.28513355  0.42323175  0.29766388    -0.38300
C1011       C  0.34119100  0.35889178  0.58254198    -0.05000
C1012       C  0.35647753  0.31846020  0.55857483    -0.02100
C1013       C  0.33136500  0.31055529  0.52458774     0.02900
C1014       C  0.28933573  0.34193298  0.51405673    -0.05000
C1015       C  0.27115140  0.37919377  0.53962467    -0.02100
C1016       C  0.29597646  0.38677836  0.57357497     0.02900
C1017       C  0.39800226  0.28423590  0.56883017     0.37500
C1018       C  0.22868288  0.41303726  0.53048398     0.37500
C1019       C  0.27468481  0.42468325  0.59867421     0.35900
C1020       C  0.34994480  0.27047933  0.50024276     0.35900
N1021       N  0.25690490  0.45462601  0.61851545    -0.38900
N1022       N  0.36537164  0.23871371  0.48086138    -0.38900
N1023       N  0.19508140  0.44041899  0.52350155    -0.38300
N1024       N  0.43091751  0.25677788  0.57713458    -0.38300
loop_ 
_geom_bond_atom_site_label_1 
_geom_bond_atom_site_label_2 
_geom_bond_distance 
_geom_bond_site_symmetry_2 
_ccdc_geom_bond_type 
O1           C16   1.266       .  A
O1           Al9   1.909       .  S
C2           O12   1.258       .  A
C2            O3   1.262       .  A
C2          C955   1.519       .  S
O3           Al5   1.930       .  S
O4            C6   1.252       .  A
O4           Al5   1.863       .  S
Al5          O13   1.847       .  S
Al5          O15   1.932       .  S
Al5          O14   1.775       .  S
C6           O19   1.273       .  A
C6          C986   1.492       .  S
O7           C17   1.259       .  A
O7           Al9   1.878       .  S
O8           C21   1.262       .  A
O8          Al18   1.900       .  S
Al9          O22   1.963       .  S
Al9          O19   1.955       .  S
Al9          O14   1.773       .  S
O10          C17   1.272       .  A
O10         Al18   1.959       .  S
O11          C20   1.276       .  A
O11         Al18   1.969       .  S
O12         Al18   1.904       .  S
O13          C20   1.256       .  A
O14         Al18   1.772       .  S
O15          C16   1.265       .  A
C16         C972   1.501       .  S
C17         C997   1.499       .  S
C20         C941   1.492       .  S
C21          O22   1.272       .  A
C21        C1014   1.521       .  S
O23          C38   1.269       .  A
O23         Al31   1.952       .  S
C24          O34   1.264       .  A
C24          O25   1.256       .  A
C24         C902   1.519       .  S
O25         Al27   1.896       .  S
O26          C28   1.272       .  A
O26         Al27   1.955       .  S
Al27         O35   1.964       .  S
Al27         O37   1.894       .  S
Al27         O36   1.769       .  S
C28          O41   1.257       .  A
C28         C916   1.491       .  S
O29          C39   1.275       .  A
O29         Al31   1.967       .  S
O30          C43   1.266       .  A
O30         Al40   1.949       .  S
Al31         O44   1.887       .  S
Al31         O41   1.865       .  S
Al31         O36   1.766       .  S
O32          C39   1.254       .  A
O32         Al40   1.862       .  S
O33          C42   1.259       .  A
O33         Al40   1.854       .  S
O34         Al40   1.934       .  S
O35          C42   1.276       .  A
O36         Al40   1.771       .  S
O37          C38   1.259       .  A
C38         C930   1.500   1_554  S
C39         C983   1.489       .  S
C42         C871   1.491       .  S
C43          O44   1.259       .  A
C43         C885   1.509       .  S
O45          C60   1.265       .  A
O45         Al53   1.937       .  S
C46          O56   1.265       .  A
C46          O47   1.257       .  A
C46         C829   1.515       .  S
O47         Al49   1.888       .  S
O48          C50   1.274   1_565  A
O48         Al49   1.962       .  S
Al49         O57   1.964       .  S
Al49         O59   1.914       .  S
Al49         O58   1.769       .  S
C50          O63   1.255       .  A
C50         C969   1.492       .  S
O51          C61   1.267   1_545  A
O51         Al53   1.941       .  S
O52          C65   1.270       .  A
O52         Al62   1.956       .  S
Al53         O66   1.896       .  S
Al53         O63   1.858       .  S
Al53         O58   1.761   1_545  S
O54          C61   1.254       .  A
O54         Al62   1.872       .  S
O55          C64   1.259       .  A
O55         Al62   1.862       .  S
O56         Al62   1.937       .  S
O57          C64   1.276       .  A
O58         Al62   1.774       .  S
O59          C60   1.265   1_565  A
C60         C899   1.511       .  S
C61         C857   1.487   1_565  S
C64         C815   1.496       .  S
C65          O66   1.261   1_565  A
C65         C843   1.497   1_565  S
O67          C82   1.263       .  A
O67         Al75   1.901       .  S
C68          O78   1.264       .  A
C68          O69   1.266       .  A
C68         C776   1.523       .  S
O69         Al71   1.943       .  S
O70          C72   1.257       .  A
O70         Al71   1.869       .  S
Al71         O79   1.841       .  S
Al71         O81   1.949       .  S
Al71         O80   1.771       .  S
C72          O85   1.272       .  A
C72         C860   1.484       .  S
O73          C83   1.255       .  A
O73         Al75   1.866   1_565  S
O74          C87   1.262       .  A
O74         Al84   1.899       .  S
Al75         O88   1.965   1_545  S
Al75         O85   1.947       .  S
Al75         O80   1.758       .  S
O76          C83   1.274   1_545  A
O76         Al84   1.988       .  S
O77          C86   1.279       .  A
O77         Al84   1.983       .  S
O78         Al84   1.919       .  S
O79          C86   1.257       .  A
O80         Al84   1.773       .  S
O81          C82   1.267       .  A
C82         C759   1.505       .  S
C83         C790   1.508       .  S
C86         C748   1.492       .  S
C87          O88   1.272   1_545  A
C87         C804   1.517   1_545  S
O89         C104   1.265   1_545  A
O89         Al97   1.910   1_455  S
C90         O100   1.257       .  A
C90          O91   1.259       .  A
C90         C689   1.513       .  S
O91         Al93   1.920       .  S
O92          C94   1.259       .  A
O92         Al93   1.874       .  S
Al93        O101   1.855   1_655  S
Al93        O103   1.909   1_655  S
Al93        O102   1.783       .  S
C94         O107   1.264   1_565  A
C94         C731   1.485   1_565  S
O95         C105   1.254       .  A
O95         Al97   1.869       .  S
O96         C109   1.262   1_565  A
O96        Al106   1.912       .  S
Al97        O110   1.930       .  S
Al97        O107   1.917       .  S
Al97        O102   1.779   1_545  S
O98         C105   1.270       .  A
O98        Al106   1.950   1_545  S
O99         C108   1.275       .  A
O99        Al106   1.964       .  S
O100       Al106   1.901       .  S
O101        C108   1.257   1_455  A
O102       Al106   1.784       .  S
O103        C104   1.259       .  A
C104        C913   1.500   1_565  S
C105        C703   1.495       .  S
C108        C675   1.495       .  S
C109        O110   1.266       .  A
C109        C717   1.525       .  S
O111        C126   1.265   1_565  A
O111       Al119   1.929   1_565  S
C112        O122   1.266       .  A
C112        O113   1.255       .  A
C112        C927   1.505       .  S
O113       Al115   1.879       .  S
O114        C116   1.275   1_545  A
O114       Al115   1.971       .  S
Al115       O123   1.966       .  S
Al115       O125   1.890       .  S
Al115       O124   1.778       .  S
C116        O129   1.254       .  A
C116        C650   1.500       .  S
O117        C127   1.265       .  A
O117       Al119   1.920       .  S
O118        C131   1.266       .  A
O118       Al128   1.934   1_655  S
Al119       O132   1.903   1_455  S
Al119       O129   1.858   1_545  S
Al119       O124   1.777       .  S
O120        C127   1.257       .  A
O120       Al128   1.863       .  S
O121        C130   1.254       .  A
O121       Al128   1.853       .  S
O122       Al128   1.949       .  S
O123        C130   1.274       .  A
O124       Al128   1.777       .  S
O125        C126   1.258       .  A
C126        C664   1.506   1_545  S
C127        C734   1.486       .  S
C130        C622   1.490       .  S
C131        O132   1.264       .  A
C131        C633   1.504       .  S
O133        C148   1.265       .  A
O133       Al141   1.906       .  S
C134        O144   1.265       .  A
C134        O135   1.259       .  A
C134        C720   1.524       .  S
O135       Al137   1.920       .  S
O136        C138   1.261       .  A
O136       Al137   1.883       .  S
Al137       O145   1.848       .  S
Al137       O147   1.933       .  S
Al137       O146   1.773       .  S
C138        O151   1.266       .  A
C138        C608   1.485       .  S
O139        C149   1.257       .  A
O139       Al141   1.857       .  S
O140        C153   1.266       .  A
O140       Al150   1.924       .  S
Al141       O154   1.924       .  S
Al141       O151   1.921       .  S
Al141       O146   1.760       .  S
O142        C149   1.269       .  A
O142       Al150   1.964       .  S
O143        C152   1.278       .  A
O143       Al150   1.967       .  S
O144       Al150   1.941       .  S
O145        C152   1.259       .  A
O146       Al150   1.782       .  S
O147        C148   1.262       .  A
C148        C594   1.504       .  S
C149        C846   1.496       .  S
C152        C944   1.487       .  S
C153        O154   1.264       .  A
C153        C773   1.525       .  S
O155        C170   1.269       .  A
O155       Al163   1.945       .  S
C156        O166   1.264       .  A
C156        O157   1.257       .  A
C156        C549   1.514       .  S
O157       Al159   1.892       .  S
O158        C160   1.270       .  A
O158       Al159   1.948       .  S
Al159       O167   1.953       .  S
Al159       O169   1.892       .  S
Al159       O168   1.771       .  S
C160        O173   1.257       .  A
C160        C563   1.493       .  S
O161        C171   1.268       .  A
O161       Al163   1.929       .  S
O162        C175   1.267       .  A
O162       Al172   1.940       .  S
Al163       O176   1.902       .  S
Al163       O173   1.873       .  S
Al163       O168   1.771       .  S
O164        C171   1.254       .  A
O164       Al172   1.866       .  S
O165        C174   1.258       .  A
O165       Al172   1.859       .  S
O166       Al172   1.935       .  S
O167        C174   1.273       .  A
O168       Al172   1.770       .  S
O169        C170   1.260       .  A
C170        C577   1.510   1_554  S
C171        C605   1.485       .  S
C174        C874   1.487       .  S
C175        O176   1.265       .  A
C175        C706   1.503       .  S
O177        C192   1.265       .  A
O177       Al185   1.930       .  S
C178        O188   1.265       .  A
C178        O179   1.257       .  A
C178        C493   1.519       .  S
O179       Al181   1.893       .  S
O180        C182   1.273       .  A
O180       Al181   1.969       .  S
Al181       O189   1.961       .  S
Al181       O191   1.908       .  S
Al181       O190   1.773       .  S
C182        O195   1.252       .  A
C182        C521   1.493       .  S
O183        C193   1.269       .  A
O183       Al185   1.937       .  S
O184        C197   1.269       .  A
O184       Al194   1.969       .  S
Al185       O198   1.896       .  S
Al185       O195   1.847       .  S
Al185       O190   1.764       .  S
O186        C193   1.255       .  A
O186       Al194   1.857       .  S
O187        C196   1.260       .  A
O187       Al194   1.859       .  S
O188       Al194   1.944       .  S
O189        C196   1.277       .  A
O190       Al194   1.780       .  S
O191        C192   1.262       .  A
C192        C538   1.507       .  S
C193        C507   1.481       .  S
C196        C482   1.497       .  S
C197        O198   1.259       .  A
C197        C787   1.508       .  S
O199        C214   1.267       .  A
O199       Al207   1.911       .  S
C200        O210   1.258       .  A
C200        O201   1.262       .  A
C200        C801   1.517       .  S
O201       Al203   1.930       .  S
O202        C204   1.255       .  A
O202       Al203   1.855       .  S
Al203       O211   1.851       .  S
Al203       O213   1.916       .  S
Al203       O212   1.776       .  S
C204        O217   1.264       .  A
C204        C510   1.481       .  S
O205        C215   1.257       .  A
O205       Al207   1.871       .  S
O206        C219   1.262       .  A
O206       Al216   1.903       .  S
Al207       O220   1.932       .  S
Al207       O217   1.917       .  S
Al207       O212   1.782       .  S
O208        C215   1.272       .  A
O208       Al216   1.956       .  S
O209        C218   1.276       .  A
O209       Al216   1.970       .  S
O210       Al216   1.907       .  S
O211        C218   1.255       .  A
O212       Al216   1.775       .  S
O213        C214   1.261       .  A
C214        C465   1.498       .  S
C215        C636   1.497       .  S
C218        C451   1.496       .  S
C219        O220   1.264       .  A
C219        C692   1.510   1_556  S
O221        C236   1.266       .  A
O221       Al229   1.933       .  S
C222        O232   1.263       .  A
C222        O223   1.255       .  A
C222        C535   1.515       .  S
O223       Al225   1.893       .  S
O224        C226   1.270       .  A
O224       Al225   1.955       .  S
Al225       O233   1.961       .  S
Al225       O235   1.900       .  S
Al225       O234   1.782       .  S
C226        O239   1.255       .  A
C226        C591   1.497       .  S
O227        C237   1.264       .  A
O227       Al229   1.910       .  S
O228        C241   1.263       .  A
O228       Al238   1.929       .  S
Al229       O242   1.914       .  S
Al229       O239   1.868       .  S
Al229       O234   1.778       .  S
O230        C237   1.257       .  A
O230       Al238   1.863       .  S
O231        C240   1.258       .  A
O231       Al238   1.860       .  S
O232       Al238   1.933       .  S
O233        C240   1.274       .  A
O234       Al238   1.783       .  S
O235        C236   1.260       .  A
C236        C552   1.516       .  S
C237        C440   1.480       .  S
C240        C818   1.496       .  S
C241        O242   1.267       .  A
C241       C1000   1.507       .  S
O243        C258   1.267       .  A
O243       Al251   1.914       .  S
C244        O254   1.258       .  A
C244        O245   1.261       .  A
C244       C1011   1.523       .  S
O245       Al247   1.931       .  S
O246        C248   1.259       .  A
O246       Al247   1.867       .  S
Al247       O255   1.862       .  S
Al247       O257   1.913       .  S
Al247       O256   1.785       .  S
C248        O261   1.263       .  A
C248        C437   1.480       .  S
O249        C259   1.255       .  A
O249       Al251   1.871       .  S
O250        C263   1.262       .  A
O250       Al260   1.910       .  S
Al251       O264   1.929       .  S
Al251       O261   1.903       .  S
Al251       O256   1.779       .  S
O252        C259   1.267       .  A
O252       Al260   1.940       .  S
O253        C262   1.273       .  A
O253       Al260   1.952       .  S
O254       Al260   1.908       .  S
O255        C262   1.257       .  A
O256       Al260   1.783       .  S
O257        C258   1.259       .  A
C258        C524   1.503       .  S
C259        C409   1.492       .  S
C262        C745   1.488       .  S
C263        O264   1.265       .  A
C263        C423   1.523       .  S
O265        C280   1.266       .  A
O265       Al273   1.939       .  S
C266        O276   1.261       .  A
C266        O267   1.253       .  A
C266        C661   1.508       .  S
O267       Al269   1.881       .  S
O268        C270   1.271       .  A
O268       Al269   1.950       .  S
Al269       O277   1.956       .  S
Al269       O279   1.895       .  S
Al269       O278   1.774       .  S
C270        O283   1.256       .  A
C270        C762   1.501       .  S
O271        C281   1.262       .  A
O271       Al273   1.906       .  S
O272        C285   1.262       .  A
O272       Al282   1.915       .  S
Al273       O286   1.914       .  S
Al273       O283   1.875       .  S
Al273       O278   1.780       .  S
O274        C281   1.256       .  A
O274       Al282   1.856       .  S
O275        C284   1.255       .  A
O275       Al282   1.850       .  S
O276       Al282   1.924       .  S
O277        C284   1.273       .  A
O278       Al282   1.778       .  S
O279        C280   1.259       .  A
C280        C832   1.512       .  S
C281        C395   1.474       .  S
C284        C479   1.487       .  S
C285        O286   1.269       .  A
C285        C412   1.500       .  S
O287        C302   1.267       .  A
O287       Al295   1.911       .  S
C288        O298   1.259       .  A
C288        O289   1.260       .  A
C288        C426   1.524       .  S
O289       Al291   1.926       .  S
O290        C292   1.257       .  A
O290       Al291   1.860       .  S
Al291       O299   1.851       .  S
Al291       O301   1.920       .  S
Al291       O300   1.781       .  S
C292        O305   1.262       .  A
C292        C398   1.473       .  S
O293        C303   1.255       .  A
O293       Al295   1.866       .  S
O294        C307   1.265       .  A
O294       Al304   1.920       .  S
Al295       O308   1.923       .  S
Al295       O305   1.903       .  S
Al295       O300   1.777       .  S
O296        C303   1.269       .  A
O296       Al304   1.950       .  S
O297        C306   1.277       .  A
O297       Al304   1.971       .  S
O298       Al304   1.913       .  S
O299        C306   1.256       .  A
O300       Al304   1.778       .  S
O301        C302   1.261       .  A
C302        C647   1.505       .  S
C303        C370   1.493       .  S
C306        C454   1.496       .  S
C307        O308   1.264       .  A
C307        C381   1.523   1_556  S
O309        C324   1.266       .  A
O309       Al317   1.941       .  S
C310        O320   1.260       .  A
C310        O311   1.257       .  A
C310        C580   1.515       .  S
O311       Al313   1.900       .  S
O312        C314   1.270       .  A
O312       Al313   1.947       .  S
Al313       O321   1.964       .  S
Al313       O323   1.900       .  S
Al313       O322   1.776       .  S
C314        O327   1.254       .  A
C314        C468   1.493       .  S
O315        C325   1.266       .  A
O315       Al317   1.918       .  S
O316        C329   1.261       .  A
O316       Al326   1.917   1_455  S
Al317       O330   1.904   1_655  S
Al317       O327   1.865       .  S
Al317       O322   1.777       .  S
O318        C325   1.257       .  A
O318       Al326   1.863       .  S
O319        C328   1.257   1_455  A
O319       Al326   1.849   1_455  S
O320       Al326   1.920       .  S
O321        C328   1.275       .  A
O322       Al326   1.781       .  S
O323        C324   1.261       .  A
C324        C496   1.521       .  S
C325        C353   1.479       .  S
C328        C619   1.492       .  S
C329        O330   1.265       .  A
C329        C367   1.498       .  S
O331        C346   1.265       .  A
O331       Al339   1.916   1_655  S
C332        O342   1.254       .  A
C332        O333   1.260       .  A
C332        C384   1.525       .  S
O333       Al335   1.932       .  S
O334        C336   1.257       .  A
O334       Al335   1.854       .  S
Al335       O343   1.848       .  S
Al335       O345   1.916   1_455  S
Al335       O344   1.784       .  S
C336        O349   1.268       .  A
C336        C356   1.478       .  S
O337        C347   1.256       .  A
O337       Al339   1.863       .  S
O338        C351   1.261       .  A
O338       Al348   1.906       .  S
Al339       O352   1.931       .  S
Al339       O349   1.924       .  S
Al339       O344   1.781       .  S
O340        C347   1.268       .  A
O340       Al348   1.947       .  S
O341        C350   1.277       .  A
O341       Al348   1.964       .  S
O342       Al348   1.902       .  S
O343        C350   1.257       .  A
O344       Al348   1.781       .  S
O345        C346   1.259       .  A
C346        C566   1.503       .  S
C347        C888   1.499       .  S
C350        C678   1.490       .  S
C351        O352   1.265       .  A
C351        C958   1.521       .  S
C353        C354   1.414   1_655  A
C353        C358   1.416       .  A
C354        C355   1.401   1_556  A
C354        C359   1.454       .  S
C355        C356   1.415       .  A
C355        C362   1.451       .  S
C356        C357   1.412   1_455  A
C357        C358   1.402   1_554  A
C357        C360   1.454       .  S
C358        C361   1.448       .  S
C359        N366   1.158       .  T
C360        N365   1.158       .  T
C361        N363   1.155       .  T
C362        N364   1.156       .  T
C367        C368   1.410       .  A
C367        C372   1.425       .  A
C368        C369   1.410       .  A
C368        C373   1.452       .  S
C369        C370   1.418       .  A
C369        C376   1.449       .  S
C370        C371   1.411       .  A
C371        C372   1.416       .  A
C371        C374   1.451       .  S
C372        C375   1.452       .  S
C373        N380   1.158       .  T
C374        N379   1.158       .  T
C375        N377   1.157       .  T
C376        N378   1.156       .  T
C381        C382   1.424       .  A
C381        C386   1.422       .  A
C382        C383   1.422       .  A
C382        C387   1.452   1_554  S
C383        C384   1.423       .  A
C383        C390   1.452       .  S
C384        C385   1.425       .  A
C385        C386   1.421       .  A
C385        C388   1.453       .  S
C386        C389   1.452       .  S
C387        N394   1.158       .  T
C388        N393   1.158       .  T
C389        N391   1.158       .  T
C390        N392   1.158       .  T
C395        C396   1.416       .  A
C395        C400   1.414       .  A
C396        C397   1.400       .  A
C396        C401   1.454       .  S
C397        C398   1.412       .  A
C397        C404   1.452       .  S
C398        C399   1.416       .  A
C399        C400   1.400       .  A
C399        C402   1.454       .  S
C400        C403   1.454       .  S
C401        N408   1.159       .  T
C402        N407   1.159       .  T
C403        N405   1.155       .  T
C404        N406   1.155       .  T
C409        C410   1.410       .  A
C409        C414   1.417       .  A
C410        C411   1.415       .  A
C410        C415   1.451       .  S
C411        C412   1.427       .  A
C411        C418   1.452       .  S
C412        C413   1.410       .  A
C413        C414   1.411       .  A
C413        C416   1.450       .  S
C414        C417   1.450       .  S
C415        N422   1.158       .  T
C416        N421   1.157       .  T
C417        N419   1.156       .  T
C418        N420   1.157       .  T
C423        C424   1.423       .  A
C423        C428   1.423       .  A
C424        C425   1.421       .  A
C424        C429   1.452       .  S
C425        C426   1.424       .  A
C425        C432   1.453       .  S
C426        C427   1.423       .  A
C427        C428   1.421       .  A
C427        C430   1.452       .  S
C428        C431   1.453       .  S
C429        N436   1.158       .  T
C430        N435   1.158       .  T
C431        N433   1.157       .  T
C432        N434   1.157       .  T
C437        C438   1.414       .  A
C437        C442   1.417       .  A
C438        C439   1.402       .  A
C438        C443   1.451       .  S
C439        C440   1.417       .  A
C439        C446   1.454       .  S
C440        C441   1.415       .  A
C441        C442   1.402       .  A
C441        C444   1.451       .  S
C442        C445   1.455       .  S
C443        N450   1.155       .  T
C444        N449   1.155       .  T
C445        N447   1.158       .  T
C446        N448   1.158       .  T
C451        C452   1.420       .  A
C451        C456   1.409       .  A
C452        C453   1.413       .  A
C452        C457   1.452       .  S
C453        C454   1.412       .  A
C453        C460   1.450       .  S
C454        C455   1.422       .  A
C455        C456   1.414       .  A
C455        C458   1.452       .  S
C456        C459   1.450       .  S
C457        N464   1.157       .  T
C458        N463   1.157       .  T
C459        N461   1.157       .  T
C460        N462   1.157       .  T
C465        C466   1.425       .  A
C465        C470   1.408       .  A
C466        C467   1.414       .  A
C466        C471   1.451       .  S
C467        C468   1.409       .  A
C467        C474   1.450       .  S
C468        C469   1.419       .  A
C469        C470   1.410       .  A
C469        C472   1.449       .  S
C470        C473   1.451       .  S
C471        N478   1.158       .  T
C472        N477   1.156       .  T
C473        N475   1.157       .  T
C474        N476   1.157       .  T
C479        C480   1.417       .  A
C479        C484   1.410       .  A
C480        C481   1.412       .  A
C480        C485   1.453       .  S
C481        C482   1.414   1_455  A
C481        C488   1.451       .  S
C482        C483   1.421       .  A
C483        C484   1.411   1_655  A
C483        C486   1.452       .  S
C484        C487   1.452       .  S
C485        N492   1.158       .  T
C486        N491   1.158       .  T
C487        N489   1.157       .  T
C488        N490   1.157       .  T
C493        C494   1.420       .  A
C493        C498   1.421       .  A
C494        C495   1.424       .  A
C494        C499   1.452       .  S
C495        C496   1.424       .  A
C495        C502   1.451   1_655  S
C496        C497   1.425       .  A
C497        C498   1.416       .  A
C497        C500   1.453       .  S
C498        C501   1.454       .  S
C499        N506   1.158   1_655  T
C500        N505   1.158       .  T
C501        N503   1.158       .  T
C502        N504   1.158       .  T
C507        C508   1.416       .  A
C507        C512   1.408       .  A
C508        C509   1.405       .  A
C508        C513   1.449       .  S
C509        C510   1.418       .  A
C509        C516   1.455       .  S
C510        C511   1.416       .  A
C511        C512   1.398       .  A
C511        C514   1.453       .  S
C512        C515   1.449       .  S
C513        N520   1.156       .  T
C514        N519   1.157       .  T
C515        N517   1.156       .  T
C516        N518   1.157       .  T
C521        C522   1.417       .  A
C521        C526   1.407       .  A
C522        C523   1.411       .  A
C522        C527   1.450       .  S
C523        C524   1.412       .  A
C523        C530   1.451       .  S
C524        C525   1.429       .  A
C525        C526   1.418       .  A
C525        C528   1.451       .  S
C526        C529   1.451       .  S
C527        N534   1.156       .  T
C528        N533   1.158       .  T
C529        N531   1.157       .  T
C530        N532   1.157       .  T
C535        C536   1.420       .  A
C535        C540   1.424       .  A
C536        C537   1.420       .  A
C536        C541   1.451       .  S
C537        C538   1.418       .  A
C537        C544   1.450       .  S
C538        C539   1.416       .  A
C539        C540   1.416       .  A
C539        C542   1.453       .  S
C540        C543   1.451       .  S
C541        N548   1.158       .  T
C542        N547   1.157       .  T
C543        N545   1.157       .  T
C544        N546   1.157       .  T
C549        C550   1.422       .  A
C549        C554   1.418       .  A
C550        C551   1.417       .  A
C550        C555   1.454       .  S
C551        C552   1.424       .  A
C551        C558   1.453       .  S
C552        C553   1.422       .  A
C553        C554   1.418       .  A
C553        C556   1.451       .  S
C554        C557   1.452       .  S
C555        N562   1.158       .  T
C556        N561   1.157       .  T
C557        N559   1.158       .  T
C558        N560   1.158       .  T
C563        C564   1.416       .  A
C563        C568   1.409       .  A
C564        C565   1.413       .  A
C564        C569   1.450       .  S
C565        C566   1.412       .  A
C565        C572   1.450       .  S
C566        C567   1.427       .  A
C567        C568   1.415       .  A
C567        C570   1.451       .  S
C568        C571   1.451       .  S
C569        N576   1.157       .  T
C570        N575   1.158       .  T
C571        N573   1.157       .  T
C572        N574   1.157       .  T
C577        C578   1.418       .  A
C577        C582   1.421       .  A
C578        C579   1.420       .  A
C578        C583   1.452   1_556  S
C579        C580   1.423       .  A
C579        C586   1.452       .  S
C580        C581   1.423       .  A
C581        C582   1.415       .  A
C581        C584   1.453       .  S
C582        C585   1.454       .  S
C583        N590   1.157       .  T
C584        N589   1.157       .  T
C585        N587   1.158       .  T
C586        N588   1.158       .  T
C591        C592   1.409       .  A
C591        C596   1.416       .  A
C592        C593   1.418       .  A
C592        C597   1.449       .  S
C593        C594   1.426       .  A
C593        C600   1.448       .  S
C594        C595   1.410       .  A
C595        C596   1.410       .  A
C595        C598   1.452       .  S
C596        C599   1.446       .  S
C597        N604   1.157       .  T
C598        N603   1.157       .  T
C599        N601   1.155       .  T
C600        N602   1.157       .  T
C605        C606   1.422       .  A
C605        C610   1.412       .  A
C606        C607   1.406       .  A
C606        C611   1.455       .  S
C607        C608   1.416       .  A
C607        C614   1.456       .  S
C608        C609   1.420       .  A
C609        C610   1.403       .  A
C609        C612   1.452       .  S
C610        C613   1.455       .  S
C611        N618   1.158       .  T
C612        N617   1.157       .  T
C613        N615   1.157       .  T
C614        N616   1.158       .  T
C619        C620   1.420   1_655  A
C619        C624   1.410       .  A
C620        C621   1.411       .  A
C620        C625   1.452       .  S
C621        C622   1.409       .  A
C621        C628   1.450       .  S
C622        C623   1.419   1_455  A
C623        C624   1.413       .  A
C623        C626   1.452       .  S
C624        C627   1.450       .  S
C625        N632   1.157       .  T
C626        N631   1.158       .  T
C627        N629   1.157       .  T
C628        N630   1.157       .  T
C633        C634   1.414   1_545  A
C633        C638   1.425       .  A
C634        C635   1.413       .  A
C634        C639   1.451       .  S
C635        C636   1.417       .  A
C635        C642   1.452       .  S
C636        C637   1.410   1_565  A
C637        C638   1.417       .  A
C637        C640   1.450       .  S
C638        C641   1.451       .  S
C639        N646   1.157       .  T
C640        N645   1.157       .  T
C641        N643   1.157       .  T
C642        N644   1.157       .  T
C647        C648   1.411       .  A
C647        C652   1.427       .  A
C648        C649   1.411       .  A
C648        C653   1.451       .  S
C649        C650   1.421       .  A
C649        C656   1.452       .  S
C650        C651   1.411       .  A
C651        C652   1.418       .  A
C651        C654   1.451       .  S
C652        C655   1.452       .  S
C653        N660   1.157       .  T
C654        N659   1.158       .  T
C655        N657   1.157       .  T
C656        N658   1.157       .  T
C661        C662   1.422       .  A
C661        C666   1.418       .  A
C662        C663   1.413   1_565  A
C662        C667   1.454   1_565  S
C663        C664   1.422   1_545  A
C663        C670   1.454       .  S
C664        C665   1.420       .  A
C665        C666   1.415       .  A
C665        C668   1.451       .  S
C666        C669   1.452       .  S
C667        N674   1.158       .  T
C668        N673   1.158       .  T
C669        N671   1.157       .  T
C670        N672   1.157       .  T
C675        C676   1.411       .  A
C675        C680   1.421   1_655  A
C676        C677   1.413       .  A
C676        C681   1.450       .  S
C677        C678   1.419   1_655  A
C677        C684   1.452       .  S
C678        C679   1.409       .  A
C679        C680   1.412       .  A
C679        C682   1.450       .  S
C680        C683   1.452       .  S
C681        N688   1.157       .  T
C682        N687   1.157       .  T
C683        N685   1.157       .  T
C684        N686   1.158       .  T
C689        C690   1.421       .  A
C689        C694   1.421       .  A
C690        C691   1.414       .  A
C690        C695   1.452       .  S
C691        C692   1.420       .  A
C691        C698   1.454       .  S
C692        C693   1.421       .  A
C693        C694   1.421       .  A
C693        C696   1.451       .  S
C694        C697   1.453       .  S
C695        N702   1.157       .  T
C696        N701   1.158   1_554  T
C697        N699   1.158       .  T
C698        N700   1.157       .  T
C703        C704   1.418       .  A
C703        C708   1.409       .  A
C704        C705   1.413       .  A
C704        C709   1.450       .  S
C705        C706   1.413       .  A
C705        C712   1.452       .  S
C706        C707   1.424       .  A
C707        C708   1.416       .  A
C707        C710   1.449       .  S
C708        C711   1.451       .  S
C709        N716   1.157       .  T
C710        N715   1.157       .  T
C711        N713   1.157       .  T
C712        N714   1.157       .  T
C717        C718   1.425       .  A
C717        C722   1.424       .  A
C718        C719   1.423       .  A
C718        C723   1.451   1_545  S
C719        C720   1.415       .  A
C719        C726   1.447       .  S
C720        C721   1.422       .  A
C721        C722   1.420       .  A
C721        C724   1.452       .  S
C722        C725   1.452       .  S
C723        N730   1.157       .  T
C724        N729   1.157       .  T
C725        N727   1.158   1_655  T
C726        N728   1.157   1_545  T
C731        C732   1.413   1_545  A
C731        C736   1.417   1_655  A
C732        C733   1.404   1_554  A
C732        C737   1.450       .  S
C733        C734   1.417   1_665  A
C733        C740   1.454       .  S
C734        C735   1.417       .  A
C735        C736   1.405   1_556  A
C735        C738   1.453       .  S
C736        C739   1.453       .  S
C737        N744   1.155       .  T
C738        N743   1.156       .  T
C739        N741   1.158       .  T
C740        N742   1.158       .  T
C745        C746   1.419       .  A
C745        C750   1.409       .  A
C746        C747   1.414       .  A
C746        C751   1.450       .  S
C747        C748   1.407       .  A
C747        C754   1.448       .  S
C748        C749   1.418       .  A
C749        C750   1.409       .  A
C749        C752   1.452       .  S
C750        C753   1.450       .  S
C751        N758   1.157       .  T
C752        N757   1.157       .  T
C753        N755   1.157       .  T
C754        N756   1.157       .  T
C759        C760   1.411   1_545  A
C759        C764   1.421       .  A
C760        C761   1.413       .  A
C760        C765   1.452       .  S
C761        C762   1.421       .  A
C761        C768   1.450       .  S
C762        C763   1.412       .  A
C763        C764   1.416   1_565  A
C763        C766   1.450   1_565  S
C764        C767   1.448       .  S
C765        N772   1.157       .  T
C766        N771   1.157       .  T
C767        N769   1.156       .  T
C768        N770   1.156       .  T
C773        C774   1.426       .  A
C773        C778   1.422       .  A
C774        C775   1.422       .  A
C774        C779   1.452       .  S
C775        C776   1.420       .  A
C775        C782   1.451       .  S
C776        C777   1.417       .  A
C777        C778   1.420       .  A
C777        C780   1.448       .  S
C778        C781   1.451       .  S
C779        N786   1.158       .  T
C780        N785   1.157       .  T
C781        N783   1.157       .  T
C782        N784   1.158       .  T
C787        C788   1.420       .  A
C787        C792   1.421       .  A
C788        C789   1.405       .  A
C788        C793   1.453       .  S
C789        C790   1.418       .  A
C789        C796   1.457       .  S
C790        C791   1.415       .  A
C791        C792   1.427       .  A
C791        C794   1.445       .  S
C792        C795   1.449       .  S
C793        N800   1.158       .  T
C794        N799   1.156   1_565  T
C795        N797   1.157       .  T
C796        N798   1.158       .  T
C801        C802   1.420       .  A
C801        C806   1.419       .  A
C802        C803   1.417   1_565  A
C802        C807   1.451       .  S
C803        C804   1.423   1_545  A
C803        C810   1.454       .  S
C804        C805   1.420       .  A
C805        C806   1.423       .  A
C805        C808   1.449       .  S
C806        C809   1.451       .  S
C807        N814   1.157   1_565  T
C808        N813   1.157       .  T
C809        N811   1.157       .  T
C810        N812   1.157       .  T
C815        C816   1.420       .  A
C815        C820   1.412       .  A
C816        C817   1.413       .  A
C816        C821   1.451       .  S
C817        C818   1.411       .  A
C817        C824   1.450       .  S
C818        C819   1.419       .  A
C819        C820   1.413       .  A
C819        C822   1.452       .  S
C820        C823   1.451       .  S
C821        N828   1.157       .  T
C822        N827   1.157       .  T
C823        N825   1.157       .  T
C824        N826   1.157       .  T
C829        C830   1.420       .  A
C829        C834   1.423       .  A
C830        C831   1.422       .  A
C830        C835   1.451       .  S
C831        C832   1.419       .  A
C831        C838   1.451       .  S
C832        C833   1.421       .  A
C833        C834   1.414       .  A
C833        C836   1.454       .  S
C834        C837   1.453       .  S
C835        N842   1.158       .  T
C836        N841   1.158       .  T
C837        N839   1.157       .  T
C838        N840   1.157       .  T
C843        C844   1.420       .  A
C843        C848   1.420       .  A
C844        C845   1.424       .  A
C844        C849   1.451   1_545  S
C845        C846   1.414       .  A
C845        C852   1.445       .  S
C846        C847   1.411       .  A
C847        C848   1.397       .  A
C847        C850   1.457       .  S
C848        C851   1.451       .  S
C849        N856   1.158       .  T
C850        N855   1.157       .  T
C851        N853   1.158       .  T
C852        N854   1.156   1_545  T
C857        C858   1.423   1_545  A
C857        C862   1.414       .  A
C858        C859   1.405       .  A
C858        C863   1.454       .  S
C859        C860   1.409   1_565  A
C859        C866   1.453       .  S
C860        C861   1.421       .  A
C861        C862   1.407       .  A
C861        C864   1.452       .  S
C862        C865   1.455       .  S
C863        N870   1.158       .  T
C864        N869   1.157       .  T
C865        N867   1.158       .  T
C866        N868   1.157       .  T
C871        C872   1.419       .  A
C871        C876   1.411       .  A
C872        C873   1.410       .  A
C872        C877   1.452       .  S
C873        C874   1.411       .  A
C873        C880   1.451       .  S
C874        C875   1.417       .  A
C875        C876   1.411       .  A
C875        C878   1.452       .  S
C876        C879   1.449       .  S
C877        N884   1.158       .  T
C878        N883   1.157       .  T
C879        N881   1.157       .  T
C880        N882   1.157       .  T
C885        C886   1.420       .  A
C885        C890   1.429       .  A
C886        C887   1.400       .  A
C886        C891   1.452       .  S
C887        C888   1.411       .  A
C887        C894   1.447       .  S
C888        C889   1.412       .  A
C889        C890   1.423       .  A
C889        C892   1.449       .  S
C890        C893   1.450       .  S
C891        N898   1.157       .  T
C892        N897   1.157       .  T
C893        N895   1.157       .  T
C894        N896   1.154       .  T
C899        C900   1.416       .  A
C899        C904   1.419       .  A
C900        C901   1.417       .  A
C900        C905   1.453   1_545  S
C901        C902   1.426       .  A
C901        C908   1.451       .  S
C902        C903   1.421       .  A
C903        C904   1.421       .  A
C903        C906   1.453       .  S
C904        C907   1.449       .  S
C905        N912   1.157       .  T
C906        N911   1.157       .  T
C907        N909   1.157       .  T
C908        N910   1.158       .  T
C913        C914   1.412       .  A
C913        C918   1.427       .  A
C914        C915   1.411       .  A
C914        C919   1.451       .  S
C915        C916   1.417       .  A
C915        C922   1.452       .  S
C916        C917   1.408       .  A
C917        C918   1.414       .  A
C917        C920   1.449       .  S
C918        C921   1.453   1_545  S
C919        N926   1.157       .  T
C920        N925   1.156       .  T
C921        N923   1.158       .  T
C922        N924   1.157       .  T
C927        C928   1.416       .  A
C927        C932   1.420       .  A
C928        C929   1.421       .  A
C928        C933   1.450       .  S
C929        C930   1.413       .  A
C929        C936   1.446       .  S
C930        C931   1.413       .  A
C931        C932   1.409       .  A
C931        C934   1.453       .  S
C932        C935   1.448       .  S
C933        N940   1.158       .  T
C934        N939   1.157       .  T
C935        N937   1.156       .  T
C936        N938   1.157       .  T
C941        C942   1.421       .  A
C941        C946   1.411       .  A
C942        C943   1.411       .  A
C942        C947   1.452       .  S
C943        C944   1.409   1_455  A
C943        C950   1.451       .  S
C944        C945   1.417       .  A
C945        C946   1.411   1_655  A
C945        C948   1.452       .  S
C946        C949   1.450       .  S
C947        N954   1.157       .  T
C948        N953   1.157       .  T
C949        N951   1.157       .  T
C950        N952   1.158       .  T
C955        C956   1.423       .  A
C955        C960   1.421       .  A
C956        C957   1.419       .  A
C956        C961   1.453       .  S
C957        C958   1.423       .  A
C957        C964   1.453       .  S
C958        C959   1.421       .  A
C959        C960   1.421       .  A
C959        C962   1.451       .  S
C960        C963   1.452       .  S
C961        N968   1.158       .  T
C962        N967   1.157   1_455  T
C963        N965   1.158       .  T
C964        N966   1.158       .  T
C969        C970   1.418       .  A
C969        C974   1.408       .  A
C970        C971   1.412       .  A
C970        C975   1.452       .  S
C971        C972   1.413       .  A
C971        C978   1.451       .  S
C972        C973   1.424       .  A
C973        C974   1.414       .  A
C973        C976   1.449       .  S
C974        C977   1.451       .  S
C975        N982   1.157       .  T
C976        N981   1.157       .  T
C977        N979   1.157       .  T
C978        N980   1.157       .  T
C983        C984   1.409       .  A
C983        C988   1.426       .  A
C984        C985   1.409       .  A
C984        C989   1.454       .  S
C985        C986   1.427       .  A
C985        C992   1.453       .  S
C986        C987   1.410       .  A
C987        C988   1.406       .  A
C987        C990   1.455       .  S
C988        C991   1.454       .  S
C989        N996   1.157       .  T
C990        N995   1.157       .  T
C991        N993   1.158       .  T
C992        N994   1.158       .  T
C997        C998   1.415       .  A
C997       C1002   1.412       .  A
C998        C999   1.414       .  A
C998       C1003   1.451       .  S
C999       C1000   1.413       .  A
C999       C1006   1.449       .  S
C1000      C1001   1.427       .  A
C1001      C1002   1.419       .  A
C1001      C1004   1.452       .  S
C1002      C1005   1.451       .  S
C1003      N1010   1.157       .  T
C1004      N1009   1.158       .  T
C1005      N1007   1.158       .  T
C1006      N1008   1.157       .  T
C1011      C1012   1.423       .  A
C1011      C1016   1.422       .  A
C1012      C1013   1.425       .  A
C1012      C1017   1.451       .  S
C1013      C1014   1.420       .  A
C1013      C1020   1.450       .  S
C1014      C1015   1.424       .  A
C1015      C1016   1.419       .  A
C1015      C1018   1.453       .  S
C1016      C1019   1.453       .  S
C1017      N1024   1.157       .  T
C1018      N1023   1.157       .  T
C1019      N1021   1.158       .  T
C1020      N1022   1.157       .  T
