geometry optimzed in LAMMPS
_audit_creation_date              2020-12-01 
_audit_creation_method            'lammps2cif' 
_symmetry_space_group_name_H-M    'P1' 
_symmetry_Int_Tables_number       1 
_symmetry_cell_setting            triclinic 
loop_ 
_symmetry_equiv_pos_as_xyz 
  x,y,z 
_cell_length_a                    39.28494875 
_cell_length_b                    39.23747797361568 
_cell_length_c                    72.00027197938508 
_cell_angle_alpha                 90.00882979700367 
_cell_angle_beta                  89.89979620019712 
_cell_angle_gamma                 119.94534508184849 
loop_ 
_atom_site_label 
_atom_site_type_symbol 
_atom_site_fract_x 
_atom_site_fract_y 
_atom_site_fract_z 
_atom_site_charge 
Zr1        Zr  0.73775978  0.84051943  0.40248161     2.17500
O2          O  0.77381862  0.88734846  0.42715906    -0.51800
O3          O  0.78654476  0.82151319  0.39609952    -0.75000
O4          O  0.73464589  0.80734907  0.43140140    -0.81700
O5          O  0.77071344  0.92478089  0.36844530    -0.83500
O6          O  0.67215823  0.75682248  0.43527199    -0.79100
O7          O  0.79100915  0.90537672  0.39388031    -0.90700
O8          O  0.76399520  0.77798210  0.37223160    -0.76700
O9          O  0.69794279  0.77181299  0.39673552    -0.86200
O10         O  0.73812470  0.83340530  0.36964840    -0.85900
O11         O  0.67434300  0.82225193  0.41522921    -0.72600
O12         O  0.71115214  0.87855579  0.38973557    -0.84800
Zr13       Zr  0.60696138  0.78402450  0.36309036     2.26400
Zr14       Zr  0.63394359  0.75370467  0.40828334     2.06300
Zr15       Zr  0.71009674  0.87002890  0.35690459     2.10000
Zr16       Zr  0.69832983  0.76480858  0.36403144     1.78800
O17         O  0.70372051  0.92689671  0.34892404    -0.93600
O18         O  0.68916247  0.70086001  0.37297868    -0.41400
O19         O  0.67051821  0.80143668  0.35101369    -0.78000
O20         O  0.63333918  0.74456738  0.37533284    -0.96700
O21         O  0.60665218  0.79134750  0.39585266    -0.90000
O22         O  0.64650568  0.85270894  0.36880876    -0.92900
C23         C  0.79036889  0.79938266  0.38416072     1.00900
C24         C  0.79512983  0.93096398  0.38161349     1.13800
C25         C  0.70783068  0.77835939  0.44063031     1.04600
O26         O  0.62533209  0.68865882  0.41382648    -0.95000
O27         O  0.56742700  0.70272874  0.40067673    -0.90800
O28         O  0.55536286  0.71888470  0.37227046    -0.83900
C29         C  0.54571313  0.69566834  0.38627955     1.11200
O30         O  0.68618935  0.90687163  0.42599404    -0.97000
Zr31       Zr  0.64765676  0.85968963  0.40185019     1.88900
O32         O  0.56295927  0.81006679  0.36912844    -0.73600
O33         O  0.59447667  0.74996120  0.43514809    -0.52900
O34         O  0.60905270  0.84296315  0.43037030    -0.97600
O35         O  0.66118448  0.92606412  0.39472398    -0.54800
O36         O  0.58477630  0.85165207  0.39362282    -0.74200
C37         C  0.55950730  0.83264875  0.38098520     0.98200
O38         O  0.55486680  0.75204204  0.34009306    -0.63000
O39         O  0.76096428  0.88726768  0.33339958    -0.57800
O40         O  0.61973739  0.79932344  0.33000733    -0.94500
O41         O  0.68018078  0.85274249  0.32628741    -0.92900
O42         O  0.73354340  0.77690481  0.33470257    -0.93200
O43         O  0.66095157  0.71690190  0.33999942    -0.92000
C44         C  0.64754942  0.82512442  0.31978081     1.17000
H45         H  0.76450708  0.84354292  0.36498539     0.33000
H46         H  0.61717974  0.71711684  0.37214538     0.43800
H47         H  0.63611156  0.86738726  0.36261851     0.37400
H48         H  0.67631529  0.82639599  0.42850093     0.33800
H49         H  0.71129576  0.69963386  0.36705261     0.25600
H50         H  0.59115286  0.72685003  0.44222432     0.31600
H51         H  0.58412205  0.81872051  0.42739728     0.37500
H52         H  0.74771913  0.80584930  0.33322495     0.31900
H53         H  0.76906372  0.91465763  0.32983525     0.30800
H54         H  0.70541351  0.92845458  0.33520100     0.32500
H55         H  0.64208193  0.92956674  0.40229099     0.31500
H56         H  0.63977457  0.72249079  0.33664710     0.35500
H57         H  0.55239054  0.72606519  0.33761637     0.28200
H58         H  0.79094047  0.87838206  0.43283160     0.32400
H59         H  0.66813141  0.91408992  0.43216407     0.35300
H60         H  0.78395830  0.88933276  0.34004193     0.27900
H61         H  0.53013726  0.74615207  0.34644066     0.40700
H62         H  0.62489639  0.67809766  0.40128619     0.30800
H63         H  0.69517043  0.70318728  0.38642089     0.38400
H64         H  0.65229006  0.92487785  0.38176832     0.30300
H65         H  0.61210188  0.77284194  0.44292803     0.30300
H66         H  0.75389232  0.88270874  0.43677342     0.30600
Zr67       Zr  0.85076823  0.71781365  0.59330736     2.17500
O68         O  0.89408946  0.74697442  0.56660977    -0.51800
O69         O  0.84043462  0.77209920  0.60047084    -0.75000
O70         O  0.81465622  0.71970892  0.56636699    -0.81700
O71         O  0.93754050  0.74612790  0.62538606    -0.83500
O72         O  0.75897160  0.66013083  0.56394324    -0.79100
O73         O  0.91826010  0.76696046  0.60013456    -0.90700
O74         O  0.79166393  0.75177484  0.62191094    -0.76700
O75         O  0.78305781  0.68658701  0.60152544    -0.86200
O76         O  0.84949832  0.72129668  0.62627685    -0.85900
O77         O  0.82239693  0.65229556  0.58120645    -0.72600
O78         O  0.88411300  0.68481704  0.60451078    -0.84800
Zr79       Zr  0.78535482  0.58963277  0.63460006     2.26400
Zr80       Zr  0.75486198  0.62047439  0.59062567     2.06300
Zr81       Zr  0.88110751  0.68677772  0.63765957     2.10000
Zr82       Zr  0.78176064  0.68986773  0.63436229     1.78800
O83         O  0.93158873  0.66890503  0.64255075    -0.93600
O84         O  0.71529146  0.67918432  0.63214194    -0.41400
O85         O  0.81333855  0.65562882  0.64581393    -0.78000
O86         O  0.75111237  0.62276354  0.62385250    -0.96700
O87         O  0.78702426  0.58641960  0.60172273    -0.90000
O88         O  0.85309448  0.62063306  0.62647664    -0.92900
C89         C  0.81650574  0.77732681  0.61055835     1.00900
C90         C  0.94405179  0.77064618  0.61212976     1.13800
C91         C  0.78257316  0.69520123  0.55824605     1.04600
O92         O  0.69253643  0.61976819  0.58975052    -0.95000
O93         O  0.70265744  0.55510626  0.59877515    -0.90800
O94         O  0.71726194  0.54353357  0.62775108    -0.83900
C95         C  0.69457381  0.53452316  0.61365359     1.11200
O96         O  0.89478201  0.64621856  0.56552567    -0.97000
Zr97       Zr  0.85451279  0.61880754  0.59328854     1.88900
O98         O  0.79993892  0.53730138  0.62738169    -0.73600
O99         O  0.73851805  0.57857896  0.56330763    -0.52900
O100        O  0.82518996  0.57383532  0.56719202    -0.97600
O101        O  0.91946636  0.62624791  0.59735628    -0.54800
O102        O  0.84277265  0.55540914  0.60325824    -0.74200
C103        C  0.82099369  0.53104927  0.61572121     0.98200
O104        O  0.75322661  0.54191758  0.65958215    -0.63000
O105        O  0.90891790  0.73728632  0.66165171    -0.57800
O106        O  0.80556350  0.60359065  0.66693694    -0.94500
O107        O  0.86493007  0.65924527  0.66900588    -0.92900
O108        O  0.81016788  0.73888694  0.65891303    -0.93200
O109        O  0.74711321  0.66655727  0.66381670    -0.92000
C110        C  0.83499579  0.62937016  0.67631840     1.17000
H111        H  0.86317854  0.74828569  0.63045168     0.33000
H112        H  0.72407084  0.60964959  0.62797593     0.43800
H113        H  0.86557487  0.60737956  0.63213317     0.37400
H114        H  0.82432413  0.65309207  0.56782157     0.33800
H115        H  0.71592152  0.70083493  0.63948429     0.25600
H116        H  0.71905345  0.58270028  0.55644581     0.31600
H117        H  0.80190772  0.55042606  0.57239300     0.37500
H118        H  0.82924307  0.73322122  0.66515226     0.31900
H119        H  0.93712741  0.74530445  0.66218827     0.30800
H120        H  0.95636915  0.69215829  0.63844928     0.32500
H121        H  0.91836834  0.60370776  0.59062684     0.31500
H122        H  0.75004641  0.64367107  0.66715600     0.35500
H123        H  0.72963650  0.54351540  0.66298212     0.28200
H124        H  0.89038126  0.76905089  0.56261308     0.32400
H125        H  0.89954972  0.62532352  0.56070737     0.35300
H126        H  0.90840579  0.76036486  0.65643294     0.27900
H127        H  0.74289533  0.51567089  0.65380642     0.40700
H128        H  0.69983925  0.64783360  0.58989430     0.30800
H129        H  0.71289806  0.68575771  0.61911577     0.38400
H130        H  0.92065972  0.62030541  0.61061918     0.30300
H131        H  0.76245172  0.59110839  0.55547335     0.30300
H132        H  0.88241306  0.72720919  0.55656327     0.30600
Zr133      Zr  0.15820733  0.88280427  0.40091642     2.17500
O134        O  0.11182925  0.86987264  0.42613350    -0.51800
O135        O  0.17117192  0.94852796  0.39502228    -0.75000
O136        O  0.19312547  0.91514333  0.42956176    -0.81700
O137        O  0.07575028  0.83156829  0.36578267    -0.83500
O138        O  0.24994198  0.91314025  0.43082298    -0.79100
O139        O  0.09161881  0.86676291  0.39263418    -0.90700
O140        O  0.21296480  0.97416506  0.37060137    -0.76700
O141        O  0.22680368  0.91668193  0.39469491    -0.86200
O142        O  0.16475784  0.89311633  0.36813716    -0.85900
O143        O  0.18161124  0.84085773  0.41237326    -0.72600
O144        O  0.12428568  0.81895637  0.38693977    -0.84800
Zr145      Zr  0.22397154  0.82052021  0.35866093     2.26400
Zr146      Zr  0.25026400  0.87416351  0.40484388     2.06300
Zr147      Zr  0.13270532  0.82948683  0.35412921     2.10000
Zr148      Zr  0.23356934  0.92720038  0.36221013     1.78800
O149        O  0.07847923  0.76537861  0.34520544    -0.93600
O150        O  0.29206392  0.98451561  0.37428550    -0.41400
O151        O  0.20153855  0.86372500  0.34804604    -0.78000
O152        O  0.25900023  0.88559353  0.37198342    -0.96700
O153        O  0.21721268  0.80997401  0.39133154    -0.90000
O154        O  0.15504956  0.78622276  0.36469417    -0.92900
C155        C  0.19069764  0.97583606  0.38320141     1.00900
C156        C  0.06745857  0.84694867  0.37957120     1.13800
C157        C  0.22599812  0.92352609  0.43724728     1.04600
O158        O  0.31522763  0.93038542  0.41047080    -0.95000
O159        O  0.30260935  0.86087219  0.39698922    -0.90800
O160        O  0.28898534  0.83465054  0.36802636    -0.83900
C161        C  0.31093742  0.84763699  0.38241336     1.11200
O162        O  0.09869672  0.75942893  0.42167755    -0.97000
Zr163      Zr  0.14864194  0.77773021  0.39767388     1.88900
O164        O  0.20371199  0.75107666  0.36261595    -0.73600
O165        O  0.25162436  0.83796157  0.43202326    -0.52900
O166        O  0.16811868  0.75861852  0.42617173    -0.97600
O167        O  0.08459319  0.72092106  0.39087110    -0.54800
O168        O  0.16209931  0.72750466  0.38717941    -0.74200
C169        C  0.18190663  0.72363754  0.37406535     0.98200
O170        O  0.26294825  0.81720124  0.33302423    -0.63000
O171        O  0.11279490  0.86078519  0.33059517    -0.57800
O172        O  0.20588202  0.81418484  0.32599627    -0.94500
O173        O  0.15180142  0.82042237  0.32312787    -0.92900
O174        O  0.21980893  0.94529630  0.33195820    -0.93200
O175        O  0.28739255  0.95244880  0.33989789    -0.92000
C176        C  0.17939719  0.81578410  0.31620914     1.17000
H177        H  0.15235086  0.90764818  0.36393524     0.33000
H178        H  0.28654364  0.89854289  0.36878911     0.43800
H179        H  0.14189389  0.76149067  0.35812991     0.37400
H180        H  0.17793279  0.83774043  0.42567166     0.33800
H181        H  0.29592000  0.00649981  0.36613707     0.25600
H182        H  0.25017434  0.81381968  0.42693907     0.31600
H183        H  0.16010948  0.73057488  0.42441961     0.37500
H184        H  0.19090946  0.93358395  0.33167951     0.31900
H185        H  0.08413309  0.84315922  0.32911762     0.30800
H186        H  0.06819223  0.77038136  0.33359819     0.32500
H187        H  0.08623468  0.69789308  0.39529540     0.31500
H188        H  0.28580731  0.92865039  0.33429150     0.35500
H189        H  0.28688926  0.84345414  0.33241469     0.28200
H190        H  0.11921434  0.89596337  0.43140522     0.32400
H191        H  0.08370813  0.77247101  0.41797716     0.35300
H192        H  0.11534780  0.88472401  0.33649504     0.27900
H193        H  0.27206315  0.79894581  0.33702642     0.40700
H194        H  0.31375690  0.95323700  0.40563850     0.30800
H195        H  0.28389958  0.99027151  0.38635738     0.38400
H196        H  0.08357136  0.71853798  0.37717300     0.30300
H197        H  0.27878331  0.85355434  0.43678859     0.30300
H198        H  0.11875229  0.85650612  0.43584158     0.30600
Zr199      Zr  0.27076441  0.10679560  0.59509658     2.17500
O200        O  0.23470412  0.11363458  0.56916404    -0.51800
O201        O  0.21930140  0.03966819  0.60020862    -0.75000
O202        O  0.27890479  0.07875824  0.56643324    -0.81700
O203        O  0.23162288  0.15282739  0.62967003    -0.83500
O204        O  0.34077277  0.08823909  0.56482238    -0.79100
O205        O  0.22046409  0.12434951  0.60110046    -0.90700
O206        O  0.24081949  0.01519353  0.62290406    -0.76700
O207        O  0.31010365  0.07760168  0.60161502    -0.86200
O208        O  0.26540165  0.09597219  0.62785528    -0.85900
O209        O  0.33575382  0.15271660  0.58431784    -0.72600
O210        O  0.29480312  0.16961257  0.60946413    -0.84800
Zr211      Zr  0.39639095  0.17755731  0.63839818     2.26400
Zr212      Zr  0.37580696  0.12465478  0.59232099     2.06300
Zr213      Zr  0.29207805  0.15922275  0.64224471     2.10000
Zr214      Zr  0.30457613  0.06679592  0.63410214     1.78800
O215        O  0.29872231  0.22246255  0.65056084    -0.93600
O216        O  0.31479353  0.01243139  0.62568014    -0.41400
O217        O  0.33137336  0.12996184  0.64840317    -0.78000
O218        O  0.37120914  0.11263903  0.62514060    -0.96700
O219        O  0.40070650  0.18837789  0.60575100    -0.90000
O220        O  0.35687225  0.20657313  0.63208892    -0.92900
C221        C  0.21495749  0.01183589  0.61101534     1.00900
C222        C  0.21180365  0.14024136  0.61455210     1.13800
C223        C  0.30600779  0.07502167  0.55831737     1.04600
O224        O  0.39219666  0.07451179  0.58383104    -0.95000
O225        O  0.43999944  0.13729795  0.60306082    -0.90800
O226        O  0.44962118  0.16479417  0.63161561    -0.83900
C227        C  0.46016089  0.15108585  0.61800923     1.11200
O228        O  0.31943054  0.22085793  0.57464167    -0.97000
Zr229      Zr  0.35921130  0.21504392  0.59907125     1.88900
O230        O  0.44195058  0.24766380  0.63301435    -0.73600
O231        O  0.41839219  0.16741520  0.56775751    -0.52900
O232        O  0.39813168  0.24119802  0.57087547    -0.97600
O233        O  0.34652800  0.26796871  0.60744724    -0.54800
O234        O  0.42158309  0.26831733  0.60828254    -0.74200
C235        C  0.44599521  0.27408305  0.62123879     0.98200
O236        O  0.44139505  0.19221197  0.66444392    -0.63000
O237        O  0.24007799  0.12642375  0.66532112    -0.57800
O238        O  0.38255284  0.18182602  0.67097598    -0.94500
O239        O  0.31860481  0.16588359  0.67357573    -0.92900
O240        O  0.26510361  0.04515718  0.66231718    -0.93200
O241        O  0.33570475  0.04898187  0.65850308    -0.92000
C242        C  0.35206396  0.17435862  0.68054757     1.17000
H243        H  0.23850246  0.07945168  0.63177604     0.33000
H244        H  0.38676313  0.10094057  0.62875657     0.43800
H245        H  0.36660698  0.23115213  0.63866063     0.37400
H246        H  0.33560196  0.15600241  0.57102465     0.33800
H247        H  0.29453549  0.98964162  0.63275827     0.25600
H248        H  0.43060584  0.15282575  0.56239439     0.31600
H249        H  0.40811260  0.26987537  0.57136566     0.37500
H250        H  0.25411617  0.01630480  0.66261753     0.31900
H251        H  0.23247376  0.14609709  0.66885050     0.30800
H252        H  0.27933759  0.21639419  0.66063505     0.32500
H253        H  0.36251913  0.28953216  0.59864630     0.31500
H254        H  0.35884769  0.07420591  0.66223346     0.35500
H255        H  0.44112891  0.16737833  0.66727381     0.28200
H256        H  0.21734231  0.08661510  0.56449790     0.32400
H257        H  0.33280458  0.24901688  0.57116687     0.35300
H258        H  0.21714265  0.10597240  0.65844570     0.27900
H259        H  0.46807711  0.21027326  0.65957977     0.40700
H260        H  0.37124375  0.05005781  0.58958318     0.30800
H261        H  0.30614536  0.00648232  0.61258802     0.38400
H262        H  0.35952918  0.27784694  0.61959136     0.30300
H263        H  0.40030144  0.16654974  0.55797458     0.30300
H264        H  0.25435408  0.12711012  0.55919892     0.30600
Zr265      Zr  0.12054541  0.26824842  0.40459402     2.17500
O266        O  0.13642979  0.24214520  0.43191698    -0.51800
O267        O  0.05571921  0.21308179  0.39870615    -0.75000
O268        O  0.08550819  0.27111517  0.43182572    -0.81700
O269        O  0.16439785  0.23029293  0.36911643    -0.83500
O270        O  0.09096427  0.33150452  0.43298131    -0.79100
O271        O  0.13581344  0.21689062  0.39773703    -0.90700
O272        O  0.03018348  0.22971017  0.37441357    -0.76700
O273        O  0.08695089  0.30289719  0.39734443    -0.86200
O274        O  0.11139944  0.26278275  0.37179313    -0.85900
O275        O  0.16205136  0.33434670  0.41513263    -0.72600
O276        O  0.18468387  0.29646342  0.39102233    -0.84800
Zr277      Zr  0.18485868  0.39391772  0.36078047     2.26400
Zr278      Zr  0.12929851  0.36969856  0.40646100     2.06300
Zr279      Zr  0.17524406  0.29327172  0.35813314     2.10000
Zr280      Zr  0.07728595  0.29689079  0.36485991     1.78800
O281        O  0.24089737  0.30294175  0.35346784    -0.93600
O282        O  0.02087385  0.30119846  0.37592535    -0.41400
O283        O  0.14123729  0.32768899  0.35101572    -0.78000
O284        O  0.11928058  0.36469803  0.37356118    -0.96700
O285        O  0.19399962  0.39930846  0.39350378    -0.90000
O286        O  0.21848860  0.35925407  0.36796099    -0.92900
C287        C  0.02850904  0.20535890  0.38684791     1.00900
C288        C  0.15074820  0.20883823  0.38369597     1.13800
C289        C  0.07855042  0.29670212  0.43937171     1.04600
O290        O  0.07233742  0.37839170  0.40915993    -0.95000
O291        O  0.14249609  0.43488791  0.39689001    -0.90800
O292        O  0.16995078  0.44514350  0.36831128    -0.83900
C293        C  0.15645596  0.45550763  0.38204706     1.11200
O294        O  0.24203714  0.33327843  0.42670734    -0.97000
Zr295      Zr  0.22549042  0.36267578  0.40101033     1.88900
O296        O  0.25482994  0.44223684  0.36490204    -0.73600
O297        O  0.16162490  0.40907220  0.43381999    -0.52900
O298        O  0.24385042  0.40507576  0.42819462    -0.97600
O299        O  0.28211273  0.35437867  0.39520419    -0.54800
O300        O  0.27674013  0.42500826  0.39032998    -0.74200
C301        C  0.28155392  0.44814124  0.37685908     0.98200
O302        O  0.19295572  0.43766136  0.33488973    -0.63000
O303        O  0.14978872  0.24615741  0.33264074    -0.57800
O304        O  0.18830874  0.37764553  0.32854159    -0.94500
O305        O  0.18611778  0.31892967  0.32670895    -0.92900
O306        O  0.05753691  0.25826587  0.33642106    -0.93200
O307        O  0.05426897  0.32358117  0.34052065    -0.92000
C308        C  0.18829201  0.34966786  0.31928474     1.17000
H309        H  0.09703125  0.23574992  0.36774597     0.33000
H310        H  0.10652507  0.37923809  0.36983058     0.43800
H311        H  0.24340243  0.37027857  0.36155819     0.37400
H312        H  0.16478345  0.33465551  0.42848800     0.33800
H313        H  0.99922512  0.28413584  0.36741092     0.25600
H314        H  0.18509531  0.43272008  0.42892270     0.31600
H315        H  0.27261127  0.41631598  0.42932099     0.37500
H316        H  0.08085579  0.25643879  0.33271477     0.31900
H317        H  0.16743414  0.23497068  0.33185081     0.30800
H318        H  0.23651774  0.27689483  0.34950443     0.32500
H319        H  0.30406919  0.37631041  0.40195124     0.31500
H320        H  0.07327169  0.35217269  0.34040175     0.35500
H321        H  0.16719571  0.43614634  0.33325665     0.28200
H322        H  0.11087691  0.22129977  0.43681363     0.32400
H323        H  0.21887023  0.30664712  0.42806864     0.35300
H324        H  0.12444576  0.22429379  0.33716956     0.27900
H325        H  0.21102602  0.46478214  0.33924208     0.40700
H326        H  0.04951516  0.35186157  0.40702650     0.30800
H327        H  0.01353311  0.28679437  0.38788393     0.38400
H328        H  0.28861963  0.36095668  0.38192230     0.30300
H329        H  0.14401104  0.41879087  0.43806997     0.30300
H330        H  0.14604445  0.26342735  0.44129103     0.30600
Zr331      Zr  0.88044187  0.13800242  0.59213934     2.17500
O332        O  0.87217898  0.09408059  0.56640853    -0.51800
O333        O  0.94751099  0.15341799  0.59695910    -0.75000
O334        O  0.90728024  0.17292661  0.56301412    -0.81700
O335        O  0.84130194  0.05700851  0.62861843    -0.83500
O336        O  0.90260899  0.22837748  0.56311453    -0.79100
O337        O  0.86460711  0.07115372  0.59898321    -0.90700
O338        O  0.97576949  0.20202070  0.61841594    -0.76700
O339        O  0.91118699  0.20653477  0.59831306    -0.86200
O340        O  0.89410714  0.14541297  0.62457571    -0.85900
O341        O  0.83410331  0.15714123  0.58233298    -0.72600
O342        O  0.81852133  0.10056211  0.60757315    -0.84800
Zr343      Zr  0.81452777  0.19589814  0.63746099     2.26400
Zr344      Zr  0.86408978  0.22549408  0.58999559     2.06300
Zr345      Zr  0.83233290  0.10985391  0.64009761     2.10000
Zr346      Zr  0.92454888  0.21403197  0.63053604     1.78800
O347        O  0.77241509  0.05005294  0.64891846    -0.93600
O348        O  0.97268753  0.27920854  0.61930038    -0.41400
O349        O  0.86276988  0.17854123  0.64635233    -0.78000
O350        O  0.87780658  0.23452879  0.62267697    -0.96700
O351        O  0.80191483  0.18872633  0.60499751    -0.90000
O352        O  0.78426543  0.12717674  0.63127871    -0.92900
C353        C  0.97674767  0.17748010  0.60689575     1.00900
C354        C  0.85198961  0.04860205  0.61327155     1.13800
C355        C  0.91360595  0.20556292  0.55586320     1.04600
O356        O  0.91599226  0.29272088  0.58388605    -0.95000
O357        O  0.84325032  0.27197277  0.59849105    -0.90800
O358        O  0.81648367  0.25596016  0.62726835    -0.83900
C359        C  0.82691773  0.27764875  0.61268277     1.11200
O360        O  0.75693829  0.07154163  0.57430895    -0.97000
Zr361      Zr  0.77291751  0.12061282  0.59848886     1.88900
O362        O  0.74384262  0.17098149  0.63519788    -0.73600
O363        O  0.82386206  0.22411874  0.56395725    -0.52900
O364        O  0.74801182  0.13529138  0.57045955    -0.97600
O365        O  0.71924175  0.05586693  0.60714140    -0.54800
O366        O  0.72264164  0.13400182  0.60909122    -0.74200
C367        C  0.71733102  0.15109845  0.62300824     0.98200
O368        O  0.81930679  0.23852072  0.66321800    -0.63000
O369        O  0.86937141  0.09664276  0.66335477    -0.57800
O370        O  0.80663264  0.17443919  0.66978857    -0.94500
O371        O  0.82084873  0.12505735  0.67129418    -0.92900
O372        O  0.95176592  0.19775788  0.65726881    -0.93200
O373        O  0.94747881  0.26232686  0.65550042    -0.92000
C374        C  0.81221885  0.14942015  0.67884358     1.11000
H375        H  0.91062800  0.13477587  0.62811215     0.33000
H376        H  0.88873068  0.26193918  0.62586177     0.43800
H377        H  0.76034219  0.11242102  0.63836156     0.37400
H378        H  0.82981437  0.15337017  0.56909627     0.33800
H379        H  0.99827641  0.28321965  0.62373683     0.25600
H380        H  0.83213826  0.25205849  0.56160847     0.31600
H381        H  0.75130942  0.16167598  0.57266772     0.37500
H382        H  0.95413009  0.17482346  0.65338433     0.31900
H383        H  0.85290176  0.06828808  0.66624032     0.30800
H384        H  0.76027373  0.03730994  0.63697495     0.32500
H385        H  0.69714665  0.05166544  0.59903256     0.31500
H386        H  0.93323888  0.27695986  0.65370381     0.35500
H387        H  0.84305202  0.26424167  0.66071219     0.28200
H388        H  0.89871594  0.10398728  0.56106631     0.32400
H389        H  0.78139480  0.07047769  0.57252910     0.35300
H390        H  0.89247420  0.09878223  0.65675162     0.27900
H391        H  0.79691076  0.24320556  0.66178044     0.40700
H392        H  0.92224846  0.30589333  0.59614458     0.30800
H393        H  0.97355567  0.27632656  0.60567660     0.38400
H394        H  0.71110267  0.05916596  0.61971968     0.30300
H395        H  0.83355957  0.21609168  0.55305131     0.30300
H396        H  0.85729367  0.09927546  0.55680893     0.30600
Zr397      Zr  0.15193741  0.26068883  0.09628045     2.17500
O398        O  0.10710771  0.23014017  0.07029241    -0.51800
O399        O  0.15960183  0.20484154  0.10372490    -0.75000
O400        O  0.18738319  0.25901153  0.06863068    -0.81700
O401        O  0.06705142  0.23329671  0.12975694    -0.83500
O402        O  0.24511324  0.31658628  0.06735297    -0.79100
O403        O  0.08436802  0.21281769  0.10369198    -0.90700
O404        O  0.19995500  0.22050461  0.12864311    -0.76700
O405        O  0.21959951  0.29160887  0.10433265    -0.86200
O406        O  0.15364554  0.25715254  0.12929295    -0.85900
O407        O  0.18010138  0.32628224  0.08425809    -0.72600
O408        O  0.11984587  0.29459495  0.10812854    -0.84800
Zr409      Zr  0.21970138  0.38962164  0.13800392     2.26400
Zr410      Zr  0.24769024  0.35772921  0.09331608     2.06300
Zr411      Zr  0.12366359  0.29270526  0.14120490     2.10000
Zr412      Zr  0.22125665  0.28814777  0.13719914     1.78800
O413        O  0.07114497  0.30774584  0.14581289    -0.93600
O414        O  0.28215639  0.28798504  0.13093874    -0.41400
O415        O  0.19151718  0.32364470  0.14921759    -0.78000
O416        O  0.25186470  0.35498416  0.12651694    -0.96700
O417        O  0.21719202  0.39299841  0.10508637    -0.90000
O418        O  0.15177828  0.35889306  0.13027484    -0.92900
C419        C  0.17767528  0.19646635  0.11611545     1.00900
C420        C  0.05949622  0.20924287  0.11623345     1.13800
C421        C  0.22069291  0.28226698  0.06096343     1.04600
O422        O  0.31127770  0.36352986  0.08705951    -0.95000
O423        O  0.30433242  0.41932214  0.10290735    -0.90800
O424        O  0.28816598  0.43501779  0.13053352    -0.83900
C425        C  0.31238380  0.44153808  0.11721203     1.11200
O426        O  0.09666898  0.32878814  0.07438787    -0.97000
Zr427      Zr  0.14938595  0.36071973  0.09710449     1.88900
O428        O  0.20307881  0.44099548  0.13215076    -0.73600
O429        O  0.25220820  0.39958423  0.06735747    -0.52900
O430        O  0.17116433  0.39393891  0.06719871    -0.97600
O431        O  0.09145071  0.36588115  0.10465227    -0.54800
O432        O  0.17232029  0.42849201  0.10426463    -0.74200
C433        C  0.18852294  0.45026992  0.11840206     0.98200
O434        O  0.25587075  0.43657129  0.16271946    -0.63000
O435        O  0.09762694  0.24423008  0.16616883    -0.57800
O436        O  0.19859973  0.37613285  0.17037815    -0.94500
O437        O  0.13957859  0.32006327  0.17233972    -0.92900
O438        O  0.19518603  0.25434271  0.16661660    -0.93200
O439        O  0.26978230  0.31453381  0.16197874    -0.92000
C440        C  0.16909097  0.35002888  0.17969333     1.17000
H441        H  0.13938938  0.23033898  0.13373783     0.33000
H442        H  0.27896394  0.36746579  0.13046304     0.43800
H443        H  0.13956255  0.37212477  0.13624603     0.37400
H444        H  0.17793016  0.32560229  0.07088268     0.33800
H445        H  0.27782914  0.26263736  0.13597144     0.25600
H446        H  0.26249468  0.42607850  0.07282984     0.31600
H447        H  0.16801496  0.41739280  0.06812941     0.37500
H448        H  0.20264760  0.23370282  0.16702328     0.31900
H449        H  0.07134700  0.24070412  0.16890669     0.30800
H450        H  0.05658390  0.30047815  0.13392227     0.32500
H451        H  0.09201514  0.38538195  0.09574054     0.31500
H452        H  0.26312693  0.33205973  0.16907071     0.35500
H453        H  0.27818380  0.43258030  0.16586059     0.28200
H454        H  0.11071092  0.20794040  0.06638809     0.32400
H455        H  0.09527617  0.35021830  0.06780944     0.35300
H456        H  0.09230479  0.21903787  0.16051929     0.27900
H457        H  0.26793720  0.46306208  0.15702402     0.40700
H458        H  0.31441737  0.34785553  0.09698191     0.30800
H459        H  0.28260705  0.28506845  0.11729825     0.38400
H460        H  0.09693263  0.37943137  0.11678845     0.30300
H461        H  0.27413406  0.40172784  0.05968321     0.30300
H462        H  0.11807453  0.24940556  0.06000222     0.30600
Zr463      Zr  0.27562898  0.14045503  0.90422638     2.17500
O464        O  0.24612194  0.09686800  0.93080715    -0.51800
O465        O  0.22033335  0.14970899  0.89783030    -0.75000
O466        O  0.27811014  0.17676348  0.93232949    -0.81700
O467        O  0.24427672  0.05500373  0.87073182    -0.83500
O468        O  0.33500476  0.23556291  0.93218463    -0.79100
O469        O  0.22705159  0.07221169  0.89780225    -0.90700
O470        O  0.23652966  0.19249840  0.87375632    -0.76700
O471        O  0.30633949  0.20794778  0.89547764    -0.86200
O472        O  0.27031691  0.14109562  0.87122328    -0.85900
O473        O  0.34195840  0.16883028  0.91510801    -0.72600
O474        O  0.30799438  0.10711183  0.89208842    -0.84800
Zr475      Zr  0.40176819  0.20461408  0.86076517     2.26400
Zr476      Zr  0.37308464  0.23628224  0.90535547     2.06300
Zr477      Zr  0.30451253  0.10989297  0.85898547     2.10000
Zr478      Zr  0.30140886  0.20848403  0.86263733     1.78800
O479        O  0.31720040  0.05570569  0.85436332    -0.93600
O480        O  0.30672753  0.27235036  0.86765570    -0.41400
O481        O  0.33550126  0.17742869  0.85020480    -0.78000
O482        O  0.36877303  0.23831848  0.87227443    -0.96700
O483        O  0.40655000  0.20379748  0.89365231    -0.90000
O484        O  0.37097827  0.13695778  0.86912305    -0.92900
C485        C  0.21267626  0.16992146  0.88632320     1.00900
C486        C  0.22161201  0.04743955  0.88484720     1.13800
C487        C  0.30179691  0.21064945  0.93937334     1.04600
O488        O  0.37621229  0.29977703  0.90672995    -0.95000
O489        O  0.43624367  0.28992067  0.89513478    -0.90800
O490        O  0.45172396  0.27053811  0.86835420    -0.83900
C491        C  0.45913795  0.29561669  0.88129942     1.11200
O492        O  0.34933437  0.09342044  0.92935086    -0.97000
Zr493      Zr  0.37454031  0.13627535  0.90224395     1.88900
O494        O  0.45324193  0.18780971  0.86567677    -0.73600
O495        O  0.41521922  0.25037870  0.93238320    -0.52900
O496        O  0.41854330  0.16529762  0.92863603    -0.97600
O497        O  0.36626740  0.07106304  0.89730873    -0.54800
O498        O  0.43756691  0.14855764  0.89116515    -0.74200
C499        C  0.46034895  0.16799914  0.87771875     0.98200
O500        O  0.44630647  0.25213374  0.83797681    -0.63000
O501        O  0.25645739  0.08447816  0.83392708    -0.57800
O502        O  0.38987277  0.18120193  0.82877392    -0.94500
O503        O  0.33129389  0.12450547  0.82774001    -0.92900
O504        O  0.25930021  0.18072374  0.83556923    -0.93200
O505        O  0.32605171  0.25102512  0.83544687    -0.92000
C506        C  0.36201491  0.15240699  0.81995632     1.17000
H507        H  0.24324525  0.12718294  0.86725415     0.33000
H508        H  0.38214446  0.26529350  0.86804094     0.43800
H509        H  0.38327697  0.12375147  0.86318413     0.37400
H510        H  0.34228108  0.16736382  0.92851091     0.33800
H511        H  0.28480954  0.27131814  0.86042757     0.25600
H512        H  0.44040216  0.25433580  0.92733839     0.31600
H513        H  0.44092843  0.18993771  0.92378971     0.37500
H514        H  0.26809607  0.16357784  0.82972741     0.31900
H515        H  0.24975263  0.05673533  0.83239529     0.30800
H516        H  0.29984183  0.03529952  0.86336742     0.32500
H517        H  0.38055522  0.07311307  0.88564715     0.31500
H518        H  0.35462465  0.26058229  0.83528275     0.35500
H519        H  0.45827929  0.23897194  0.83101597     0.28200
H520        H  0.22653655  0.10321826  0.93592367     0.32400
H521        H  0.37057348  0.08826755  0.93314475     0.35300
H522        H  0.23240246  0.08303703  0.83909210     0.27900
H523        H  0.42951111  0.25587928  0.82891410     0.40700
H524        H  0.34846623  0.29344610  0.90685020     0.30800
H525        H  0.29891500  0.27181968  0.88077865     0.38400
H526        H  0.33820754  0.05427592  0.89405359     0.30300
H527        H  0.42115514  0.27692076  0.93640390     0.30300
H528        H  0.26715926  0.10622680  0.94027345     0.30600
Zr529      Zr  0.12200077  0.83853010  0.09205887     2.17500
O530        O  0.13087971  0.88350987  0.06671022    -0.51800
O531        O  0.05541025  0.82305361  0.09925728    -0.75000
O532        O  0.09098528  0.80309713  0.06328500    -0.81700
O533        O  0.17163529  0.92303188  0.12632529    -0.83500
O534        O  0.09664989  0.74824158  0.06198199    -0.79100
O535        O  0.13541990  0.90424875  0.09980886    -0.90700
O536        O  0.03197512  0.78005895  0.12332014    -0.76700
O537        O  0.09047569  0.77039159  0.09927286    -0.86200
O538        O  0.11523844  0.83439243  0.12506737    -0.85900
O539        O  0.16530982  0.81691205  0.08036703    -0.72600
O540        O  0.18715794  0.87555000  0.10463733    -0.84800
Zr541      Zr  0.19147045  0.78024205  0.13426562     2.26400
Zr542      Zr  0.13436624  0.74880764  0.08876204     2.06300
Zr543      Zr  0.18023881  0.86976127  0.13770436     2.10000
Zr544      Zr  0.08333687  0.76602153  0.13203631     1.78800
O545        O  0.24617410  0.92517251  0.14264035    -0.93600
O546        O  0.02820251  0.70296596  0.12249239    -0.41400
O547        O  0.14764882  0.80145354  0.14518153    -0.78000
O548        O  0.12598938  0.74223912  0.12186034    -0.96700
O549        O  0.19901894  0.78469668  0.10139223    -0.90000
O550        O  0.22402666  0.84851444  0.12693104    -0.92900
C551        C  0.02854795  0.80184553  0.11105927     1.00900
C552        C  0.15424267  0.92912586  0.11274435     1.13800
C553        C  0.08463113  0.77087253  0.05550573     1.04600
O554        O  0.07845054  0.68315894  0.08417185    -0.95000
O555        O  0.14933419  0.69804972  0.09729959    -0.90800
O556        O  0.18415470  0.71825875  0.12415257    -0.83900
C557        C  0.16857144  0.69408732  0.11068267     1.11200
O558        O  0.24171494  0.89542180  0.06705766    -0.97000
Zr559      Zr  0.22963062  0.85257449  0.09380124     1.88900
O560        O  0.26105830  0.80309964  0.12997561    -0.73600
O561        O  0.17155615  0.74470213  0.06259478    -0.52900
O562        O  0.25118419  0.82985790  0.06712697    -0.97600
O563        O  0.28229875  0.91993860  0.09892854    -0.54800
O564        O  0.28256997  0.84348788  0.10488426    -0.74200
C565        C  0.28772949  0.82491664  0.11821318     0.98200
O566        O  0.19316256  0.74027294  0.15984793    -0.63000
O567        O  0.15514577  0.89342362  0.16253914    -0.57800
O568        O  0.19942337  0.80066473  0.16673843    -0.94500
O569        O  0.19432536  0.85565732  0.16885464    -0.92900
O570        O  0.06443966  0.78474817  0.16083005    -0.93200
O571        O  0.06417738  0.71659243  0.15635539    -0.92000
C572        C  0.19905030  0.82837625  0.17611789     1.17000
H573        H  0.10012979  0.84604784  0.12948534     0.33000
H574        H  0.11449797  0.71496907  0.12544048     0.43800
H575        H  0.24915373  0.86278314  0.13306297     0.37400
H576        H  0.16746285  0.81988688  0.06702381     0.33800
H577        H  0.00634880  0.69874790  0.13082453     0.25600
H578        H  0.15311790  0.71972897  0.05633407     0.31600
H579        H  0.28017481  0.84339827  0.06810514     0.37500
H580        H  0.08951701  0.80513987  0.16630808     0.31900
H581        H  0.17502079  0.92159351  0.16397002     0.30800
H582        H  0.24354601  0.94885641  0.14127550     0.32500
H583        H  0.30563415  0.92144167  0.09285063     0.31500
H584        H  0.08765302  0.71387319  0.15830377     0.35500
H585        H  0.16847075  0.71468566  0.15895649     0.28200
H586        H  0.10400003  0.87636452  0.06274470     0.32400
H587        H  0.26838571  0.90301049  0.06251939     0.35300
H588        H  0.13182073  0.89333890  0.15729739     0.27900
H589        H  0.21437225  0.73451684  0.15678812     0.40700
H590        H  0.05550369  0.68499330  0.08851437     0.30800
H591        H  0.02040574  0.70800244  0.11017967     0.38400
H592        H  0.28810861  0.92145908  0.11236830     0.30300
H593        H  0.17444518  0.76545346  0.05385596     0.30300
H594        H  0.14187851  0.87567598  0.05623995     0.30600
Zr595      Zr  0.88882661  0.71881689  0.89952095     2.17500
O596        O  0.87726229  0.75352902  0.92462590    -0.51800
O597        O  0.95487713  0.77167907  0.89344739    -0.75000
O598        O  0.92024324  0.71564976  0.92811764    -0.81700
O599        O  0.83136195  0.74763439  0.86650138    -0.83500
O600        O  0.91758481  0.65651063  0.92946678    -0.79100
O601        O  0.87008687  0.76775614  0.89225922    -0.90700
O602        O  0.97983171  0.75202809  0.87000259    -0.76700
O603        O  0.92239798  0.68403528  0.89221657    -0.86200
O604        O  0.89586958  0.72238988  0.86656817    -0.85900
O605        O  0.84806242  0.65341150  0.91132621    -0.72600
O606        O  0.82393381  0.68869349  0.88698312    -0.84800
Zr607      Zr  0.82289156  0.59021999  0.85792196     2.26400
Zr608      Zr  0.88083266  0.61790089  0.90277924     2.06300
Zr609      Zr  0.83088214  0.69024646  0.85397527     2.10000
Zr610      Zr  0.92932738  0.68758775  0.85945698     1.78800
O611        O  0.76590312  0.68018972  0.84687077    -0.93600
O612        O  0.98471456  0.67791382  0.86601755    -0.41400
O613        O  0.86463618  0.65570793  0.84672389    -0.78000
O614        O  0.88924073  0.62073673  0.86971337    -0.96700
O615        O  0.81543553  0.58695236  0.89075383    -0.90000
O616        O  0.78907848  0.62479664  0.86502152    -0.92900
C617        C  0.98236027  0.77714806  0.88212723     1.00900
C618        C  0.84801633  0.77120278  0.88013020     1.13800
C619        C  0.92776494  0.69075330  0.93599782     1.04600
O620        O  0.93855055  0.61108603  0.90728056    -0.95000
O621        O  0.86977305  0.55335622  0.89336273    -0.90800
O622        O  0.84169291  0.54144194  0.86487021    -0.83900
C623        C  0.85649662  0.53248074  0.87855747     1.11200
O624        O  0.77064990  0.65453172  0.92440667    -0.97000
Zr625      Zr  0.78365056  0.62346580  0.89812259     1.88900
O626        O  0.75413121  0.54145526  0.86394032    -0.73600
O627        O  0.84659906  0.57643711  0.92939770    -0.52900
O628        O  0.76224086  0.57962029  0.92491133    -0.97600
O629        O  0.73045926  0.63684280  0.89177093    -0.54800
O630        O  0.73068154  0.56174909  0.88771307    -0.74200
C631        C  0.72673163  0.53709080  0.87512540     0.98200
O632        O  0.80879682  0.54360330  0.83261643    -0.63000
O633        O  0.86152616  0.74106851  0.83019429    -0.57800
O634        O  0.81667630  0.60368078  0.82553803    -0.94500
O635        O  0.81785344  0.66177120  0.82303188    -0.92900
O636        O  0.95055955  0.73113285  0.83260362    -0.93200
O637        O  0.94412719  0.66014631  0.83235114    -0.92000
C638        C  0.81541143  0.63060591  0.81594356     1.17000
H639        H  0.91032335  0.74930568  0.86229478     0.33000
H640        H  0.90245909  0.60671082  0.86592843     0.43800
H641        H  0.76384572  0.61322944  0.85897484     0.37400
H642        H  0.84590116  0.65404405  0.92466583     0.33800
H643        H  0.00657724  0.69822642  0.85850459     0.25600
H644        H  0.86450205  0.56741180  0.93403263     0.31600
H645        H  0.76644522  0.55764685  0.92129709     0.37500
H646        H  0.92591260  0.72500829  0.82615327     0.31900
H647        H  0.83934408  0.74082304  0.82356338     0.30800
H648        H  0.77095114  0.70371019  0.83962522     0.32500
H649        H  0.71638584  0.62026679  0.88093417     0.31500
H650        H  0.92175476  0.63292294  0.83143726     0.35500
H651        H  0.83428123  0.54581355  0.82925807     0.28200
H652        H  0.90343043  0.77162158  0.92993963     0.32400
H653        H  0.74358033  0.63557055  0.92850484     0.35300
H654        H  0.87441871  0.76644261  0.83691873     0.27900
H655        H  0.79301569  0.51703428  0.83808496     0.40700
H656        H  0.96111078  0.63753613  0.90464807     0.30800
H657        H  0.99203177  0.68685483  0.87900181     0.38400
H658        H  0.74369670  0.66406862  0.88687619     0.30300
H659        H  0.84734330  0.59470650  0.93908005     0.30300
H660        H  0.86320139  0.73341870  0.93433803     0.30600
Zr661      Zr  0.73610355  0.87123555  0.09533892     2.17500
O662        O  0.77408720  0.86370634  0.07045817    -0.51800
O663        O  0.78700747  0.93857582  0.10144720    -0.75000
O664        O  0.73124373  0.90093242  0.06636931    -0.81700
O665        O  0.77225675  0.82591985  0.13174121    -0.83500
O666        O  0.66902118  0.89014053  0.06333744    -0.79100
O667        O  0.78556986  0.85357387  0.10289088    -0.90700
O668        O  0.76597692  0.96278698  0.12461660    -0.76700
O669        O  0.69751845  0.90131783  0.10100135    -0.86200
O670        O  0.73897647  0.88156196  0.12810087    -0.85900
O671        O  0.67150277  0.82563874  0.08399443    -0.72600
O672        O  0.70959998  0.80796047  0.10971003    -0.84800
Zr673      Zr  0.60773176  0.80283189  0.13738223     2.26400
Zr674      Zr  0.63226353  0.85537999  0.09090844     2.06300
Zr675      Zr  0.71025996  0.81815711  0.14251246     2.10000
Zr676      Zr  0.70054759  0.91198010  0.13349949     1.78800
O677        O  0.70322284  0.75435812  0.14992856    -0.93600
O678        O  0.69069319  0.96478015  0.12195224    -0.41400
O679        O  0.67213973  0.84910427  0.14828023    -0.78000
O680        O  0.63470996  0.86724981  0.12364301    -0.96700
O681        O  0.60520805  0.79180273  0.10480416    -0.90000
O682        O  0.64565261  0.77179670  0.13200312    -0.92900
C683        C  0.79164279  0.96598893  0.11266220     1.00900
C684        C  0.79316667  0.83830157  0.11693135     1.13800
C685        C  0.70449914  0.90414021  0.05757158     1.04600
O686        O  0.62343614  0.91148152  0.08475484    -0.95000
O687        O  0.56687650  0.84200206  0.10041282    -0.90800
O688        O  0.55686482  0.81806813  0.12979927    -0.83900
C689        C  0.54674354  0.83039698  0.11554542     1.11200
O690        O  0.67713593  0.74782800  0.07395687    -0.97000
Zr691      Zr  0.64510529  0.76296330  0.09909615     1.88900
O692        O  0.56344568  0.73225402  0.13355130    -0.73600
O693        O  0.59009437  0.81664023  0.06535726    -0.52900
O694        O  0.60200166  0.73600707  0.07227034    -0.97600
O695        O  0.66282004  0.71383252  0.10800953    -0.54800
O696        O  0.58419676  0.70907110  0.10993201    -0.74200
C697        C  0.55969299  0.70458816  0.12273005     0.98200
O698        O  0.55295861  0.78734872  0.15837378    -0.63000
O699        O  0.75826810  0.84981199  0.16724349    -0.57800
O700        O  0.62356338  0.80393413  0.17015584    -0.94500
O701        O  0.68232725  0.80698827  0.17361679    -0.92900
O702        O  0.73591408  0.93376579  0.16277507    -0.93200
O703        O  0.66992714  0.93468446  0.15596143    -0.92000
C704        C  0.65099663  0.80500395  0.18021578     1.17000
H705        H  0.76562800  0.89750359  0.13240650     0.33000
H706        H  0.61955132  0.87967300  0.12682116     0.43800
H707        H  0.63539934  0.74739925  0.13879560     0.37400
H708        H  0.67236333  0.82216311  0.07074329     0.33800
H709        H  0.71216228  0.98901908  0.12758111     0.25600
H710        H  0.58042313  0.83341210  0.05993356     0.31600
H711        H  0.57843275  0.73783531  0.07544739     0.37500
H712        H  0.74361446  0.91389836  0.16570927     0.31900
H713        H  0.76909201  0.83220816  0.16957785     0.30800
H714        H  0.72523999  0.76035602  0.15846797     0.32500
H715        H  0.65290727  0.70603573  0.12084359     0.31500
H716        H  0.65044960  0.91050341  0.16247251     0.35500
H717        H  0.54961175  0.76505037  0.16613802     0.28200
H718        H  0.79313827  0.89080025  0.06640658     0.32400
H719        H  0.65937782  0.71972357  0.07098720     0.35300
H720        H  0.78018702  0.87366761  0.16155418     0.27900
H721        H  0.56225646  0.80989313  0.16701254     0.40700
H722        H  0.62294817  0.92202999  0.09718537     0.30800
H723        H  0.69746422  0.96714780  0.10858614     0.38400
H724        H  0.69177680  0.72869965  0.10932020     0.30300
H725        H  0.60818697  0.81632125  0.05585731     0.30300
H726        H  0.75568710  0.85190225  0.05991319     0.30600
Zr727      Zr  0.85069364  0.10246624  0.90406652     2.17500
O728        O  0.89535742  0.11229290  0.92963299    -0.51800
O729        O  0.83437748  0.03501393  0.89891516    -0.75000
O730        O  0.81465190  0.07311816  0.93260711    -0.81700
O731        O  0.93055419  0.14058209  0.86679683    -0.83500
O732        O  0.76335008  0.08433050  0.93523882    -0.79100
O733        O  0.91627927  0.11554506  0.89613326    -0.90700
O734        O  0.78809592  0.01004806  0.87635946    -0.76700
O735        O  0.78199705  0.07404534  0.89899224    -0.86200
O736        O  0.84152569  0.08915269  0.87161347    -0.85900
O737        O  0.83384032  0.15023854  0.91469240    -0.72600
O738        O  0.88887263  0.16423287  0.88861978    -0.84800
Zr739      Zr  0.79358772  0.17136508  0.86073909     2.26400
Zr740      Zr  0.76508590  0.12233194  0.90818660     2.06300
Zr741      Zr  0.87774193  0.15091409  0.85616335     2.10000
Zr742      Zr  0.77273531  0.06041673  0.86683313     1.78800
O743        O  0.93577240  0.21236751  0.84729023    -0.93600
O744        O  0.71188196  0.00695564  0.87954588    -0.41400
O745        O  0.80884003  0.12203486  0.85107943    -0.78000
O746        O  0.75408203  0.10819322  0.87559126    -0.96700
O747        O  0.80303285  0.18451273  0.89313801    -0.90000
O748        O  0.86236382  0.19995920  0.86581969    -0.92900
C749        C  0.81127134  0.00719537  0.88802732     1.00900
C750        C  0.93880616  0.12861196  0.88182139     1.13800
C751        C  0.78417861  0.06958775  0.94102710     1.04600
O752        O  0.69809804  0.07054223  0.91458218    -0.95000
O753        O  0.71756518  0.14256007  0.89972547    -0.90800
O754        O  0.73282667  0.16768711  0.87059940    -0.83900
C755        C  0.71131784  0.15774880  0.88520375     1.11200
O756        O  0.92173695  0.22257841  0.92140912    -0.97000
Zr757      Zr  0.87141801  0.21135443  0.89855036     1.88900
O758        O  0.82059477  0.24237474  0.86359335    -0.73600
O759        O  0.76753004  0.16159340  0.93488111    -0.52900
O760        O  0.85637147  0.23694862  0.92628784    -0.97600
O761        O  0.93629721  0.26466193  0.88962669    -0.54800
O762        O  0.86307666  0.26457309  0.88774996    -0.74200
C763        C  0.84405693  0.26967792  0.87470680     0.98200
O764        O  0.75499065  0.17479720  0.83500581    -0.63000
O765        O  0.89135253  0.11530193  0.83224357    -0.57800
O766        O  0.81040082  0.17519307  0.82794162    -0.94500
O767        O  0.85876299  0.15968405  0.82525472    -0.92900
O768        O  0.78344643  0.03548469  0.83776501    -0.93200
O769        O  0.71849245  0.03878947  0.84505793    -0.92000
C770        C  0.83367461  0.16800460  0.81836083     1.17000
H771        H  0.85144750  0.07232211  0.86751913     0.33000
H772        H  0.72663233  0.09765002  0.87270433     0.43800
H773        H  0.87704823  0.22382038  0.85870977     0.37400
H774        H  0.83845632  0.15439880  0.92788896     0.33800
H775        H  0.70647805  0.98370221  0.87198063     0.25600
H776        H  0.77318741  0.18716131  0.92955399     0.31600
H777        H  0.87384586  0.26581720  0.92555940     0.37500
H778        H  0.81004209  0.05584196  0.83373567     0.31900
H779        H  0.91937722  0.13261591  0.82900036     0.30800
H780        H  0.94917901  0.22397995  0.85918328     0.32500
H781        H  0.94148694  0.28669579  0.89804336     0.31500
H782        H  0.72220426  0.06338028  0.83935015     0.35500
H783        H  0.72847749  0.15136174  0.83618906     0.28200
H784        H  0.88665311  0.08569842  0.93466209     0.32400
H785        H  0.92959096  0.24842836  0.92710122     0.35300
H786        H  0.89043894  0.09252571  0.83863123     0.27900
H787        H  0.75143152  0.19758849  0.83765274     0.40700
H788        H  0.69352665  0.04920581  0.90583956     0.30800
H789        H  0.71907888  0.00146340  0.89190803     0.38400
H790        H  0.93276597  0.27351844  0.87727339     0.30300
H791        H  0.73994562  0.14933936  0.93918997     0.30300
H792        H  0.88888201  0.12585263  0.93944337     0.30600
C793        C  0.71575113  0.92659880  0.03983510    -0.20300
C794        C  0.68892454  0.91693901  0.02497585     0.35900
C795        C  0.70047719  0.94058421  0.00890826    -0.26300
C796        C  0.73813797  0.97354255  0.00741047     0.02400
C797        C  0.76506056  0.98307023  0.02206699     0.27200
C798        C  0.75370879  0.95931222  0.03805332    -0.25400
N799        N  0.65030224  0.88296684  0.02613639    -0.82800
H800        H  0.68009448  0.93333184  0.99747568     0.13000
C801        C  0.74926233  0.99771269  0.99031038     0.02300
N802        N  0.80351909  0.01727695  0.02078212    -0.81300
H803        H  0.77434563  0.96685787  0.04934930     0.17800
C804        C  0.74405378  0.03053379  0.98946128    -0.26200
C805        C  0.75511048  0.05463504  0.97353989     0.35800
C806        C  0.77182843  0.04560126  0.95824754    -0.20200
C807        C  0.77675312  0.01255225  0.95921059    -0.25500
C808        C  0.76546037  0.98840238  0.97502120     0.27200
H809        H  0.73156724  0.03744105  0.00131996     0.13000
N810        N  0.75002818  0.08845263  0.97299336    -0.82700
H811        H  0.78903656  0.00524517  0.94744159     0.17800
N812        N  0.76988926  0.95418249  0.97553693    -0.81300
H813        H  0.73725906  0.09079821  0.98532806     0.33500
H814        H  0.77794927  0.11343277  0.97223163     0.37900
H815        H  0.78161550  0.95109473  0.96301722     0.33400
H816        H  0.79040445  0.95862122  0.98584119     0.30100
H817        H  0.81949887  0.02068065  0.03291702     0.33400
H818        H  0.81859539  0.01258498  0.01002038     0.30100
H819        H  0.65362503  0.85815409  0.02666435     0.38000
H820        H  0.63420197  0.88023948  0.01412801     0.33500
C821        C  0.84115784  0.80464493  0.88191440    -0.20300
C822        C  0.80359812  0.79994169  0.87897016     0.35900
C823        C  0.79829838  0.83258892  0.88017671    -0.26300
C824        C  0.83004556  0.87012797  0.88397449     0.02400
C825        C  0.86772740  0.87487638  0.88700458     0.27200
C826        C  0.87272908  0.84189070  0.88623042    -0.25400
N827        N  0.77057714  0.76187644  0.87521634    -0.82800
H828        H  0.76914072  0.82852730  0.87827356     0.13000
C829        C  0.82322721  0.90398427  0.88519204     0.02300
N830        N  0.90081650  0.91321515  0.89056688    -0.81300
H831        H  0.90160934  0.84543500  0.88843139     0.17800
C832        C  0.83453795  0.92698833  0.90132833    -0.26200
C833        C  0.82957693  0.95987705  0.90300555     0.35800
C834        C  0.81307326  0.97022837  0.88807218    -0.20200
C835        C  0.80027255  0.94606491  0.87222427    -0.25500
C836        C  0.80522892  0.91315930  0.87060157     0.27200
H837        H  0.84713599  0.91903477  0.91275154     0.13000
N838        N  0.84091124  0.98240914  0.91988587    -0.82700
H839        H  0.78750782  0.95356125  0.86071545     0.17800
N840        N  0.79273103  0.88950787  0.85405431    -0.81300
H841        H  0.85302597  0.97114007  0.92930700     0.33500
H842        H  0.81525232  0.97888625  0.92604106     0.37900
H843        H  0.77948153  0.89986106  0.84479108     0.33400
H844        H  0.81782358  0.89259223  0.84743181     0.30100
H845        H  0.92624890  0.91150787  0.89269241     0.33400
H846        H  0.90566920  0.93023055  0.87863152     0.30100
H847        H  0.75852163  0.76322544  0.86248965     0.38000
H848        H  0.74946389  0.75548653  0.88553720     0.33500
C849        C  0.85749642  0.49521750  0.87709694    -0.20300
C850        C  0.85937923  0.47951390  0.85962983     0.35900
C851        C  0.85611369  0.44223528  0.85876432    -0.26300
C852        C  0.85249541  0.42096971  0.87494844     0.02400
C853        C  0.85207903  0.43704942  0.89240500     0.27200
C854        C  0.85451543  0.47398906  0.89330925    -0.25400
N855        N  0.86550654  0.50177680  0.84286889    -0.82800
H856        H  0.85732427  0.43002844  0.84543698     0.13000
C857        C  0.85101814  0.38263296  0.87351093     0.02300
N858        N  0.84882220  0.41555588  0.90911477    -0.81300
H859        H  0.85314531  0.48580443  0.90671298     0.17800
C860        C  0.88186187  0.37903865  0.88103361    -0.26200
C861        C  0.88092591  0.34293607  0.88095775     0.35800
C862        C  0.84855597  0.30945195  0.87299690    -0.20200
C863        C  0.81848342  0.31363702  0.86467372    -0.25500
C864        C  0.81914594  0.34981448  0.86506307     0.27200
H865        H  0.90664864  0.40440746  0.88728634     0.13000
N866        N  0.91292117  0.34056145  0.88911887    -0.82700
H867        H  0.79357131  0.28828902  0.85852862     0.17800
N868        N  0.78714691  0.35311248  0.85739851    -0.81300
H869        H  0.91520973  0.34906848  0.90303537     0.33500
H870        H  0.93881515  0.36063099  0.88232131     0.37900
H871        H  0.76592992  0.32622804  0.85179364     0.33400
H872        H  0.77357213  0.35935487  0.86833628     0.30100
H873        H  0.84911904  0.43149217  0.92081263     0.33400
H874        H  0.82143513  0.38980933  0.90894700     0.30100
H875        H  0.89337802  0.52680448  0.84369673     0.38000
H876        H  0.86593180  0.48592734  0.83127890     0.33500
C877        C  0.95026472  0.70234474  0.95369157    -0.20300
C878        C  0.94903445  0.72977241  0.96603854     0.35900
C879        C  0.97226123  0.74095786  0.98217429    -0.26300
C880        C  0.99622246  0.72493998  0.98647624     0.02400
C881        C  0.99673164  0.69681491  0.97442498     0.27200
C882        C  0.97375053  0.68580174  0.95821817    -0.25400
N883        N  0.92356182  0.74548479  0.96243872    -0.82800
H884        H  0.97114303  0.76179616  0.99167641     0.13000
C885        C  0.01968156  0.73713661  0.00393390     0.02300
N886        N  0.02092630  0.67987337  0.97858451    -0.81300
H887        H  0.97482403  0.66469823  0.94887892     0.17800
C888        C  0.01398056  0.70850999  0.01715549    -0.26200
C889        C  0.03481033  0.71878912  0.03401208     0.35800
C890        C  0.06182846  0.75878640  0.03787613    -0.20200
C891        C  0.06731149  0.78747594  0.02466653    -0.25500
C892        C  0.04687314  0.77702736  0.00765858     0.27200
H893        H  0.99269145  0.67797421  0.01440288     0.13000
N894        N  0.02799673  0.68876624  0.04735835    -0.82700
H895        H  0.08822171  0.81809242  0.02747416     0.17800
N896        N  0.05386898  0.80668310  0.99406720    -0.81300
H897        H  0.00754930  0.66095386  0.04232069     0.33500
H898        H  0.01537826  0.69364590  0.05912310     0.37900
H899        H  0.07464317  0.83453739  0.99892262     0.33400
H900        H  0.06614273  0.80117471  0.98235081     0.30100
H901        H  0.01763886  0.65936435  0.96844810     0.33400
H902        H  0.05022030  0.70245877  0.97802233     0.30100
H903        H  0.89464669  0.72215382  0.96324986     0.38000
H904        H  0.92650199  0.76554307  0.97274805     0.33500
C905        C  0.99211013  0.80445053  0.11092957    -0.20300
C906        C  0.95585560  0.77415766  0.11799839     0.35900
C907        C  0.92320242  0.77981551  0.11849932    -0.26300
C908        C  0.92616827  0.81491465  0.11211877     0.02400
C909        C  0.96180961  0.84472059  0.10476778     0.27200
C910        C  0.99430920  0.83910449  0.10413822    -0.25400
N911        N  0.95215305  0.73780546  0.12449066    -0.82800
H912        H  0.89537577  0.75693777  0.12396705     0.13000
C913        C  0.89180947  0.82046826  0.11328420     0.02300
N914        N  0.96487665  0.88074753  0.09817825    -0.81300
H915        H  0.02172090  0.86229564  0.09856134     0.17800
C916        C  0.88946491  0.84276583  0.12790305    -0.26200
C917        C  0.85748182  0.84920733  0.12935573     0.35800
C918        C  0.82776317  0.83333883  0.11574975    -0.20200
C919        C  0.83054721  0.81163702  0.10093182    -0.25500
C920        C  0.86239376  0.80495557  0.09958764     0.27200
H921        H  0.91264661  0.85505618  0.13819326     0.13000
N922        N  0.85573030  0.87282032  0.14418852    -0.82700
H923        H  0.80756274  0.79951116  0.09053790     0.17800
N924        N  0.86508181  0.78253599  0.08443991    -0.81300
H925        H  0.88118440  0.88434405  0.15226518     0.33500
H926        H  0.83263000  0.85422421  0.15294151     0.37900
H927        H  0.84085969  0.77293141  0.07563593     0.33400
H928        H  0.88983883  0.80137394  0.07657966     0.30100
H929        H  0.99332488  0.89997689  0.09341292     0.33400
H930        H  0.94630176  0.87390679  0.08670958     0.30100
H931        H  0.95629287  0.72379114  0.11307302     0.38000
H932        H  0.92370858  0.71898740  0.12939568     0.33500
C933        C  0.32687762  0.82822767  0.11976983    -0.20300
C934        C  0.36120440  0.86169087  0.11309132     0.35900
C935        C  0.39691723  0.86165069  0.11289599    -0.26300
C936        C  0.39914826  0.82930581  0.11953826     0.02400
C937        C  0.36548722  0.79663502  0.12692907     0.27200
C938        C  0.32968111  0.79651902  0.12709817    -0.25400
N939        N  0.35977402  0.89565349  0.10666513    -0.82800
H940        H  0.42319643  0.88690599  0.10752534     0.13000
C941        C  0.43694650  0.82984781  0.11839904     0.02300
N942        N  0.36774324  0.76348360  0.13389257    -0.81300
H943        H  0.30363686  0.77103613  0.13243545     0.17800
C944        C  0.45850225  0.83502395  0.13462041    -0.26200
C945        C  0.49475350  0.83607086  0.13405264     0.35800
C946        C  0.50943968  0.83128029  0.11680511    -0.20200
C947        C  0.48763927  0.82629909  0.10057513    -0.25500
C948        C  0.45138674  0.82526543  0.10123447     0.27200
H949        H  0.44711566  0.83868573  0.14773559     0.13000
N950        N  0.51684345  0.84260738  0.15088076    -0.82700
H951        H  0.49848106  0.82231115  0.08737895     0.17800
N952        N  0.42886134  0.81912037  0.08460005    -0.81300
H953        H  0.50159748  0.84492268  0.16228282     0.33500
H954        H  0.54268010  0.86975197  0.14961666     0.37900
H955        H  0.44358395  0.81633058  0.07310336     0.33400
H956        H  0.40274333  0.79226662  0.08600061     0.30100
H957        H  0.34039437  0.74189008  0.13892315     0.33400
H958        H  0.37457035  0.75095547  0.12270376     0.30100
H959        H  0.35232203  0.90725744  0.11801965     0.38000
H960        H  0.38748569  0.91756245  0.10217395     0.33500
C961        C  0.49706410  0.33309506  0.87989512    -0.20300
C962        C  0.51424117  0.35869485  0.89519898     0.35900
C963        C  0.55137182  0.39238667  0.89309833    -0.26300
C964        C  0.57196766  0.40056532  0.87625521     0.02400
C965        C  0.55497089  0.37544486  0.86098024     0.27200
C966        C  0.51761463  0.34229108  0.86288140    -0.25400
N967        N  0.49469217  0.35009766  0.91290726    -0.82800
H968        H  0.56489291  0.41191438  0.90480362     0.13000
C969        C  0.61141775  0.43569312  0.87483772     0.02300
N970        N  0.57585398  0.38363675  0.84363831    -0.81300
H971        H  0.50478445  0.32332634  0.85095778     0.17800
C972        C  0.64401115  0.43119987  0.87104411    -0.26200
C973        C  0.68208249  0.46400886  0.87013675     0.35800
C974        C  0.68742811  0.50182063  0.87356546    -0.20200
C975        C  0.65453016  0.50610964  0.87700412    -0.25500
C976        C  0.61654698  0.47348800  0.87742045     0.27200
H977        H  0.63969086  0.40193402  0.86899868     0.13000
N978        N  0.71522434  0.45880527  0.86657901    -0.82700
H979        H  0.65851853  0.53515897  0.87938689     0.17800
N980        N  0.58309887  0.47847572  0.88044911    -0.81300
H981        H  0.70630086  0.42890268  0.86564619     0.33500
H982        H  0.72625099  0.47070247  0.85347963     0.37900
H983        H  0.59194734  0.50822121  0.88215847     0.33400
H984        H  0.56593562  0.46915550  0.86842622     0.30100
H985        H  0.55943505  0.36195936  0.83381685     0.33400
H986        H  0.57917051  0.41004310  0.83849342     0.30100
H987        H  0.49433248  0.32511015  0.91819953     0.38000
H988        H  0.51072011  0.37274605  0.92237128     0.33500
C989        C  0.18732141  0.00699507  0.88613109    -0.20300
C990        C  0.15268770  0.99844912  0.89591853     0.35900
C991        C  0.12103305  0.95963072  0.89631672    -0.26300
C992        C  0.12282680  0.92943234  0.88675628     0.02400
C993        C  0.15729896  0.93779537  0.87703528     0.27200
C994        C  0.18917485  0.97635207  0.87689925    -0.25400
N995        N  0.14898678  0.02934981  0.90465905    -0.82800
H996        H  0.09415578  0.95315178  0.90346253     0.13000
C997        C  0.08742441  0.88981829  0.88589297     0.02300
N998        N  0.15960195  0.90710505  0.86719555    -0.81300
H999        H  0.21562795  0.98246650  0.86945489     0.17800
C1000       C  0.07125517  0.87419409  0.86847380    -0.26200
C1001       C  0.03759656  0.83698347  0.86683861     0.35800
C1002       C  0.01921892  0.81529957  0.88306480    -0.20200
C1003       C  0.03505900  0.83119512  0.90053319    -0.25500
C1004       C  0.06930740  0.86809659  0.90210996     0.27200
H1005       H  0.08489632  0.89133317  0.85607861     0.13000
N1006       N  0.02111051  0.82204261  0.84883004    -0.82700
H1007       H  0.02083470  0.81454229  0.91296998     0.17800
N1008       N  0.08581912  0.88355121  0.92004952    -0.81300
H1009       H  0.03625492  0.84316358  0.83856504     0.33500
H1010       H  0.02577335  0.79861006  0.84588396     0.37900
H1011       H  0.06883151  0.86398706  0.93055190     0.33400
H1012       H  0.11342684  0.88571841  0.92061383     0.30100
H1013       H  0.18680046  0.91818771  0.86056379     0.33400
H1014       H  0.15786187  0.88664614  0.87700267     0.30100
H1015       H  0.14918919  0.04758373  0.89404310     0.38000
H1016       H  0.12180218  0.01805154  0.91133046     0.33500
C1017       C  0.49778087  0.16812359  0.87662173    -0.20300
C1018       C  0.49838092  0.13267175  0.87538237     0.35900
C1019       C  0.53410286  0.13302323  0.87695381    -0.26300
C1020       C  0.56927176  0.16815991  0.88046884     0.02400
C1021       C  0.56866823  0.20384385  0.88171734     0.27200
C1022       C  0.53294706  0.20351413  0.87939269    -0.25400
N1023       N  0.46264014  0.09623225  0.87262978    -0.82800
H1024       H  0.53427860  0.10559283  0.87566945     0.13000
C1025       C  0.60635472  0.16700906  0.88269366     0.02300
N1026       N  0.60400198  0.23997587  0.88596769    -0.81300
H1027       H  0.53215872  0.23062530  0.88075702     0.17800
C1028       C  0.63897638  0.19161963  0.87168706    -0.26200
C1029       C  0.67420038  0.19071764  0.87294595     0.35800
C1030       C  0.67638190  0.16317244  0.88492992    -0.20200
C1031       C  0.64393185  0.13920759  0.89625530    -0.25500
C1032       C  0.60917467  0.14114793  0.89542520     0.27200
H1033       H  0.63688830  0.21159007  0.86197546     0.13000
N1034       N  0.70778168  0.21802241  0.86224574    -0.82700
H1035       H  0.64539312  0.11835936  0.90561147     0.17800
N1036       N  0.57669778  0.11692022  0.90745405    -0.81300
H1037       H  0.70105755  0.23583602  0.85402617     0.33500
H1038       H  0.72931489  0.23673594  0.87163213     0.37900
H1039       H  0.58341041  0.09943224  0.91591947     0.33400
H1040       H  0.57244652  0.13561619  0.91629674     0.30100
H1041       H  0.59847157  0.26341004  0.88648130     0.33400
H1042       H  0.61287508  0.23719579  0.89929503     0.30100
H1043       H  0.45918822  0.07764023  0.88375620     0.38000
H1044       H  0.46556337  0.08328626  0.86048896     0.33500
C1045       C  0.17281732  0.16511326  0.88711920    -0.20300
C1046       C  0.16558029  0.19591860  0.88247602     0.35900
C1047       C  0.12663257  0.18845029  0.88202927    -0.26300
C1048       C  0.09510889  0.15101871  0.88622770     0.02400
C1049       C  0.10227712  0.12063895  0.89140582     0.27200
C1050       C  0.14107742  0.12808385  0.89191704    -0.25400
N1051       N  0.19767814  0.23461309  0.87845583    -0.82800
H1052       H  0.12073433  0.21179248  0.87836233     0.13000
C1053       C  0.05460492  0.14406162  0.88538380     0.02300
N1054       N  0.07005846  0.08222203  0.89579797    -0.81300
H1055       H  0.14648795  0.10455590  0.89566681     0.17800
C1056       C  0.03243097  0.12808742  0.86922104    -0.26200
C1057       C  0.99396306  0.12166940  0.86787929     0.35800
C1058       C  0.97772913  0.13165396  0.88301526    -0.20200
C1059       C  0.99970405  0.14662215  0.89934965    -0.25500
C1060       C  0.03810114  0.15301977  0.90066158     0.27200
H1061       H  0.04527751  0.12076895  0.85764785     0.13000
N1062       N  0.97122864  0.10477555  0.85134156    -0.82700
H1063       H  0.98722328  0.15430760  0.91094609     0.17800
N1064       N  0.06071123  0.16918931  0.91729531    -0.81300
H1065       H  0.98745780  0.09907365  0.84155941     0.33500
H1066       H  0.94716414  0.07756072  0.85496738     0.37900
H1067       H  0.04448362  0.17470431  0.92715382     0.33400
H1068       H  0.06606539  0.14785299  0.92304456     0.30100
H1069       H  0.08034473  0.06300223  0.89911059     0.33400
H1070       H  0.05634987  0.08478174  0.90774690     0.30100
H1071       H  0.21438660  0.24533247  0.89056090     0.38000
H1072       H  0.18725886  0.25378981  0.87529733     0.33500
C1073       C  0.01945634  0.17467924  0.11509976    -0.20300
C1074       C  0.98617971  0.17607158  0.12160143     0.35900
C1075       C  0.94906652  0.14203240  0.12081989    -0.26300
C1076       C  0.94440751  0.10671587  0.11367112     0.02400
C1077       C  0.97746099  0.10541936  0.10689355     0.27200
C1078       C  0.01458453  0.13949094  0.10756491    -0.25400
N1079       N  0.98998996  0.21209809  0.12866470    -0.82800
H1080       H  0.92347082  0.14307620  0.12566603     0.13000
C1081       C  0.90467656  0.07136138  0.11342674     0.02300
N1082       N  0.97328607  0.06937794  0.09964212    -0.81300
H1083       H  0.04001210  0.13827280  0.10259718     0.17800
C1084       C  0.88898260  0.05198655  0.09655972    -0.26200
C1085       C  0.85170191  0.01809001  0.09583322     0.35800
C1086       C  0.82968350  0.00328212  0.11235347    -0.20200
C1087       C  0.84486985  0.02357492  0.12910795    -0.25500
C1088       C  0.88231945  0.05716914  0.12986295     0.27200
H1089       H  0.90584626  0.06355602  0.08389426     0.13000
N1090       N  0.83582114  0.99914586  0.07835784    -0.82700
H1091       H  0.82806749  0.01234237  0.14181284     0.17800
N1092       N  0.89813839  0.07639098  0.14731385    -0.81300
H1093       H  0.85579920  0.01359867  0.06758042     0.33500
H1094       H  0.81129066  0.00210463  0.07566009     0.37900
H1095       H  0.87784331  0.06249090  0.15803806     0.33400
H1096       H  0.92243585  0.07321990  0.15033701     0.30100
H1097       H  0.00039235  0.07349030  0.09511805     0.33400
H1098       H  0.96413826  0.04909950  0.11055326     0.30100
H1099       H  0.99900084  0.23212883  0.11764982     0.38000
H1100       H  0.96278374  0.20786695  0.13309530     0.33500
C1101       C  0.35189088  0.47723852  0.11879006    -0.20300
C1102       C  0.37517226  0.49679707  0.10304824     0.35900
C1103       C  0.41023670  0.53267729  0.10541252    -0.26300
C1104       C  0.42288373  0.54920828  0.12307156     0.02400
C1105       C  0.40063932  0.52924838  0.13882906     0.27200
C1106       C  0.36535681  0.49360809  0.13653421    -0.25400
N1107       N  0.36253806  0.48132446  0.08466943    -0.82800
H1108       H  0.42753225  0.54833958  0.09335146     0.13000
C1109       C  0.45881608  0.58820306  0.12463881     0.02300
N1110       N  0.41388351  0.54541526  0.15705631    -0.81300
H1111       H  0.34812645  0.47869111  0.14872312     0.17800
C1112       C  0.45614620  0.61984984  0.13204307    -0.26200
C1113       C  0.48893244  0.65801077  0.13239894     0.35800
C1114       C  0.52502514  0.66462454  0.12482193    -0.20200
C1115       C  0.52762472  0.63246054  0.11786818    -0.25500
C1116       C  0.49504904  0.59437195  0.11784247     0.27200
H1117       H  0.42808285  0.61483362  0.13720855     0.13000
N1118       N  0.48507908  0.69000290  0.13973644    -0.82700
H1119       H  0.55523556  0.63701818  0.11230079     0.17800
N1120       N  0.49845630  0.56190252  0.11080533    -0.81300
H1121       H  0.45586650  0.68049742  0.14328787     0.33500
H1122       H  0.50081771  0.69866412  0.15217769     0.37900
H1123       H  0.52702005  0.57146375  0.10609719     0.33400
H1124       H  0.49346680  0.54275087  0.12189527     0.30100
H1125       H  0.39398169  0.52724776  0.16718759     0.33400
H1126       H  0.44025727  0.54574471  0.15955411     0.30100
H1127       H  0.36514378  0.45617267  0.08347027     0.38000
H1128       H  0.38141845  0.50104242  0.07466086     0.33500
C1129       C  0.17326977  0.65928069  0.11088022    -0.20300
C1130       C  0.20996214  0.66281557  0.11515523     0.35900
C1131       C  0.21286024  0.62879632  0.11675688    -0.26300
C1132       C  0.17993304  0.59167356  0.11404701     0.02400
C1133       C  0.14352183  0.58804750  0.10925529     0.27200
C1134       C  0.14051413  0.62209073  0.10769095    -0.25400
N1135       N  0.24410722  0.70093431  0.11770125    -0.82800
H1136       H  0.24083581  0.63111925  0.12009671     0.13000
C1137       C  0.18444479  0.55681850  0.11562214     0.02300
N1138       N  0.10985870  0.54984953  0.10617528    -0.81300
H1139       H  0.11244650  0.61960512  0.10440552     0.17800
C1140       C  0.17315090  0.53478484  0.13207433    -0.26200
C1141       C  0.17553794  0.50034406  0.13364953     0.35800
C1142       C  0.18987024  0.48838440  0.11849622    -0.20200
C1143       C  0.20199305  0.51114264  0.10222259    -0.25500
C1144       C  0.19952284  0.54541268  0.10065825     0.27200
H1145       H  0.16169553  0.54407523  0.14350110     0.13000
N1146       N  0.16206406  0.47674225  0.15019911    -0.82700
H1147       H  0.21281278  0.50170884  0.09058852     0.17800
N1148       N  0.21193597  0.56857267  0.08393886    -0.81300
H1149       H  0.15239489  0.48974123  0.15998774     0.33500
H1150       H  0.13757171  0.44982890  0.14662379     0.37900
H1151       H  0.22263495  0.55627212  0.07429464     0.33400
H1152       H  0.18716998  0.56743862  0.07794481     0.30100
H1153       H  0.08525040  0.55233435  0.10293401     0.33400
H1154       H  0.11568867  0.53772300  0.09450354     0.30100
H1155       H  0.25002449  0.71595346  0.10505266     0.38000
H1156       H  0.26869236  0.69828358  0.12077335     0.33500
C1157       C  0.15667782  0.96788304  0.11204691    -0.20300
C1158       C  0.12517940  0.97231548  0.10558633     0.35900
C1159       C  0.12866125  0.00970989  0.10584563    -0.26300
C1160       C  0.16295240  0.04258934  0.11236542     0.02400
C1161       C  0.19480822  0.03837984  0.11831210     0.27200
C1162       C  0.19113938  0.00098113  0.11833841    -0.25400
N1163       N  0.08937026  0.93874211  0.09940872    -0.82800
H1164       H  0.10422070  0.01313692  0.10135808     0.13000
C1165       C  0.16499345  0.08123147  0.11329168     0.02300
N1166       N  0.23085039  0.07221768  0.12412602    -0.81300
H1167       H  0.21554876  0.99773106  0.12306179     0.17800
C1168       C  0.17222741  0.10052915  0.13045088    -0.26200
C1169       C  0.17580525  0.13785264  0.13188904     0.35800
C1170       C  0.17236682  0.15635810  0.11571141    -0.20200
C1171       C  0.16369627  0.13623796  0.09866988    -0.25500
C1172       C  0.16028036  0.09901212  0.09726723     0.27200
H1173       H  0.17497861  0.08625651  0.14278502     0.13000
N1174       N  0.18232863  0.15661924  0.14971627    -0.82700
H1175       H  0.16071668  0.15009466  0.08624108     0.17800
N1176       N  0.15297702  0.07959969  0.07957834    -0.81300
H1177       H  0.18461181  0.13920678  0.16008230     0.33500
H1178       H  0.15747387  0.15874220  0.15290931     0.37900
H1179       H  0.15004688  0.09657447  0.06918974     0.33400
H1180       H  0.17771265  0.07744723  0.07615717     0.30100
H1181       H  0.25138654  0.06407708  0.12811015     0.33400
H1182       H  0.24272418  0.09071421  0.11260318     0.30100
H1183       H  0.07658000  0.92058254  0.11095688     0.38000
H1184       H  0.06942034  0.94720268  0.09484583     0.33500
C1185       C  0.29028428  0.22137500  0.95719183    -0.20300
C1186       C  0.29747285  0.25989336  0.96067609     0.35900
C1187       C  0.28648086  0.26864523  0.97790375    -0.26300
C1188       C  0.26868495  0.23986530  0.99181119     0.02400
C1189       C  0.26197221  0.20155010  0.98838674     0.27200
C1190       C  0.27236860  0.19262078  0.97107436    -0.25400
N1191       N  0.31523732  0.28978323  0.94661910    -0.82800
H1192       H  0.29135693  0.29797320  0.98043427     0.13000
C1193       C  0.25681759  0.25007926  0.00979504     0.02300
N1194       N  0.24512784  0.17198608  0.00262631    -0.81300
H1195       H  0.26727641  0.16321072  0.96854731     0.17800
C1196       C  0.21758781  0.22844015  0.01573980    -0.26200
C1197       C  0.20503451  0.23715811  0.03254818     0.35800
C1198       C  0.23224473  0.26926989  0.04357820    -0.20200
C1199       C  0.27167432  0.29054094  0.03757500    -0.25500
C1200       C  0.28423137  0.28113054  0.02099853     0.27200
H1201       H  0.19652921  0.20454172  0.00714025     0.13000
N1202       N  0.16463908  0.21379851  0.03812839    -0.82700
H1203       H  0.29312282  0.31469519  0.04591296     0.17800
N1204       N  0.32486080  0.30286860  0.01556023    -0.81300
H1205       H  0.14815989  0.19351471  0.02779152     0.33500
H1206       H  0.16387518  0.19714450  0.04962153     0.37900
H1207       H  0.34126283  0.32489499  0.02523902     0.33400
H1208       H  0.33578999  0.28342897  0.01574385     0.30100
H1209       H  0.24221094  0.14542644  0.99795366     0.33400
H1210       H  0.26487765  0.18124951  0.01372657     0.30100
H1211       H  0.29576643  0.28126026  0.93542234     0.38000
H1212       H  0.31876483  0.31650508  0.95142346     0.33500
C1213       C  0.82903397  0.16561461  0.79802370    -0.20300
C1214       C  0.81957365  0.13023727  0.78884015     0.35900
C1215       C  0.81508511  0.12791497  0.76949559    -0.26300
C1216       C  0.82027301  0.16036621  0.75909409     0.02400
C1217       C  0.82965015  0.19581541  0.76826043     0.27200
C1218       C  0.83321298  0.19787422  0.78776520    -0.25400
N1219       N  0.81403422  0.09660855  0.79929144    -0.82800
H1220       H  0.80765263  0.10068129  0.76243201     0.13000
C1221       C  0.81751377  0.15701310  0.73854242     0.02300
N1222       N  0.83646816  0.22972266  0.75768292    -0.81300
H1223       H  0.84035134  0.22492768  0.79492323     0.17800
C1224       C  0.78928836  0.16229196  0.72903071    -0.26200
C1225       C  0.78604070  0.15897716  0.70953350     0.35800
C1226       C  0.81166046  0.15031698  0.69943526    -0.20200
C1227       C  0.83931364  0.14434539  0.70908608    -0.25500
C1228       C  0.84271569  0.14789262  0.72846315     0.27200
H1229       H  0.76959912  0.16872057  0.73687572     0.13000
N1230       N  0.75663532  0.16388100  0.70001763    -0.82700
H1231       H  0.85932880  0.13811402  0.70140137     0.17800
N1232       N  0.87214940  0.14293850  0.73795648    -0.81300
H1233       H  0.74018614  0.17003359  0.70947219     0.33500
H1234       H  0.73714801  0.13697798  0.69382507     0.37900
H1235       H  0.88817736  0.13611478  0.72855429     0.33400
H1236       H  0.89200609  0.16995978  0.74393540     0.30100
H1237       H  0.84326013  0.25346049  0.76649206     0.33400
H1238       H  0.86129052  0.23797737  0.74940739     0.30100
H1239       H  0.78930145  0.08768346  0.80772022     0.38000
H1240       H  0.80770236  0.07303043  0.79045591     0.33500
C1241       C  0.05473149  0.28499362  0.45668271    -0.20300
C1242       C  0.03087580  0.30114935  0.46180962     0.35900
C1243       C  0.00806789  0.28785415  0.47806957    -0.26300
C1244       C  0.00861971  0.25902440  0.48934160     0.02400
C1245       C  0.03243134  0.24302134  0.48435363     0.27200
C1246       C  0.05504348  0.25599235  0.46805306    -0.25400
N1247       N  0.02854183  0.32975234  0.45021773    -0.82800
H1248       H  0.98945426  0.29981688  0.48193960     0.13000
C1249       C  0.98382387  0.24564571  0.50628162     0.02300
N1250       N  0.03367526  0.21381016  0.49593213    -0.81300
H1251       H  0.07332920  0.24358540  0.46430871     0.17800
C1252       C  0.95441521  0.20604940  0.50788719    -0.26200
C1253       C  0.93057143  0.19221952  0.52382017     0.35800
C1254       C  0.93636399  0.21866203  0.53839111    -0.20200
C1255       C  0.96526424  0.25841429  0.53657413    -0.25500
C1256       C  0.98933325  0.27211321  0.52075081     0.27200
H1257       H  0.94998769  0.18596791  0.49660438     0.13000
N1258       N  0.90024781  0.15167683  0.52514278    -0.82700
H1259       H  0.96985099  0.27864889  0.54780930     0.17800
N1260       N  0.01980275  0.31260950  0.51943955    -0.81300
H1261       H  0.89996684  0.13620464  0.51326384     0.33500
H1262       H  0.87325373  0.15088973  0.52551588     0.37900
H1263       H  0.01992846  0.32819058  0.53124673     0.33400
H1264       H  0.04674494  0.31327797  0.51924037     0.30100
H1265       H  0.05237625  0.20476869  0.49023076     0.33400
H1266       H  0.04587838  0.22705360  0.50866726     0.30100
H1267       H  0.05478844  0.35636622  0.45182136     0.38000
H1268       H  0.00629536  0.33493624  0.45486168     0.33500
C1269       C  0.17083912  0.35350387  0.20028358    -0.20300
C1270       C  0.13673895  0.33558996  0.21158328     0.35900
C1271       C  0.14071076  0.33721948  0.23103351    -0.26300
C1272       C  0.17787477  0.35595766  0.23937764     0.02400
C1273       C  0.21180431  0.37439141  0.22822750     0.27200
C1274       C  0.20796765  0.37314105  0.20883298    -0.25400
N1275       N  0.09830501  0.31561102  0.20335122    -0.82800
H1276       H  0.11476174  0.32316797  0.23975967     0.13000
C1277       C  0.18102314  0.35498888  0.25982346     0.02300
N1278       N  0.25003260  0.39384271  0.23668849    -0.81300
H1279       H  0.23429092  0.38663722  0.20035409     0.17800
C1280       C  0.19764325  0.33395788  0.26768500    -0.26200
C1281       C  0.20127648  0.33228200  0.28704001     0.35800
C1282       C  0.18790802  0.35216202  0.29873809    -0.20200
C1283       C  0.17139878  0.37330135  0.29071219    -0.25500
C1284       C  0.16777161  0.37486347  0.27140625     0.27200
H1285       H  0.20771074  0.31871134  0.25862946     0.13000
N1286       N  0.21858042  0.31067315  0.29476144    -0.82700
H1287       H  0.16049929  0.38812183  0.29954947     0.17800
N1288       N  0.15060333  0.39644416  0.26350704    -0.81300
H1289       H  0.22615005  0.29726524  0.28424754     0.33500
H1290       H  0.24480090  0.33092939  0.30121905     0.37900
H1291       H  0.14183600  0.40894973  0.27395897     0.33400
H1292       H  0.17247883  0.41978638  0.25586077     0.30100
H1293       H  0.27205303  0.40550328  0.22655090     0.33400
H1294       H  0.25247242  0.41767102  0.24428603     0.30100
H1295       H  0.09427227  0.33665834  0.19633740     0.38000
H1296       H  0.07655098  0.30356361  0.21360364     0.33500
C1297       C  0.35485477  0.17172038  0.70088661    -0.20300
C1298       C  0.33057047  0.13584314  0.71004228     0.35900
C1299       C  0.33451192  0.13300458  0.72925109    -0.26300
C1300       C  0.36159475  0.16553587  0.73969544     0.02400
C1301       C  0.38666939  0.20131380  0.73041801     0.27200
C1302       C  0.38352857  0.20375888  0.71100505    -0.25400
N1303       N  0.30249069  0.10214112  0.69968275    -0.82800
H1304       H  0.31618068  0.10515349  0.73616489     0.13000
C1305       C  0.36206856  0.16155609  0.76031696     0.02300
N1306       N  0.41460178  0.23514951  0.74073389    -0.81300
H1307       H  0.40280385  0.23097209  0.70379978     0.17800
C1308       C  0.39760866  0.17317909  0.76969530    -0.26200
C1309       C  0.39863289  0.16986581  0.78916241     0.35800
C1310       C  0.36318291  0.15335563  0.79937660    -0.20200
C1311       C  0.32769955  0.14094194  0.78992806    -0.25500
C1312       C  0.32680217  0.14564123  0.77067333     0.27200
H1313       H  0.42464779  0.18484839  0.76180550     0.13000
N1314       N  0.43541029  0.18317241  0.79854189    -0.82700
H1315       H  0.30054681  0.12924973  0.79774754     0.17800
N1316       N  0.29023888  0.13529425  0.76166689    -0.81300
H1317       H  0.45869820  0.19493565  0.78905181     0.33500
H1318       H  0.43479037  0.15858982  0.80452145     0.37900
H1319       H  0.26708018  0.12392274  0.77122807     0.33400
H1320       H  0.29247625  0.16115967  0.75638827     0.30100
H1321       H  0.43085227  0.25894195  0.73183666     0.33400
H1322       H  0.39879946  0.24339932  0.74955892     0.30100
H1323       H  0.31820309  0.09422394  0.69061939     0.38000
H1324       H  0.28659355  0.07809471  0.70849327     0.33500
C1325       C  0.49795855  0.15113089  0.61972019    -0.20300
C1326       C  0.51370285  0.14966196  0.63722409     0.35900
C1327       C  0.55016912  0.15113845  0.63807907    -0.26300
C1328       C  0.57086621  0.15304427  0.62189359     0.02400
C1329       C  0.55501387  0.15385514  0.60443057     0.27200
C1330       C  0.51880739  0.15289994  0.60353336    -0.25400
N1331       N  0.49218957  0.14543736  0.65404914    -0.82800
H1332       H  0.56201666  0.14958864  0.65143305     0.13000
C1333       C  0.60798441  0.15186337  0.62335988     0.02300
N1334       N  0.57584890  0.15573557  0.58767229    -0.81300
H1335       H  0.50704319  0.15401177  0.59009229     0.17800
C1336       C  0.61039560  0.12137911  0.61450963    -0.26200
C1337       C  0.64507535  0.11944547  0.61486767     0.35800
C1338       C  0.67839659  0.14874209  0.62446138    -0.20200
C1339       C  0.67518910  0.17812599  0.63416819    -0.25500
C1340       C  0.64055351  0.18037703  0.63346090     0.27200
H1341       H  0.58496731  0.09897796  0.60717247     0.13000
N1342       N  0.64641769  0.08780292  0.60545656    -0.82700
H1343       H  0.70028537  0.20041140  0.64169280     0.17800
N1344       N  0.63872548  0.21212608  0.64246868    -0.81300
H1345       H  0.61991361  0.06958831  0.59865970     0.33500
H1346       H  0.64960156  0.07053065  0.61559391     0.37900
H1347       H  0.66515170  0.23062870  0.64926614     0.33400
H1348       H  0.63557462  0.22904424  0.63212275     0.30100
H1349       H  0.56012706  0.15582688  0.57598820     0.33400
H1350       H  0.60221950  0.18257122  0.58767156     0.30100
H1351       H  0.50801631  0.14515252  0.66565230     0.38000
H1352       H  0.46658068  0.11793752  0.65362915     0.33500
C1353       C  0.17723695  0.14546724  0.61224021    -0.20300
C1354       C  0.15198408  0.14025112  0.62725180     0.35900
C1355       C  0.11993714  0.14613927  0.62464384    -0.26300
C1356       C  0.11321655  0.15825919  0.60741870     0.02400
C1357       C  0.13869733  0.16431986  0.59242023     0.27200
C1358       C  0.17012975  0.15715261  0.59488253    -0.25400
N1359       N  0.15841365  0.12838272  0.64510107    -0.82800
H1360       H  0.10032137  0.14152866  0.63617950     0.13000
C1361       C  0.07904067  0.16411510  0.60545925     0.02300
N1362       N  0.13310662  0.17863105  0.57497027    -0.81300
H1363       H  0.18980597  0.16177772  0.58337681     0.17800
C1364       C  0.08350331  0.20128413  0.60893158    -0.26200
C1365       C  0.05080539  0.20694679  0.60901838     0.35800
C1366       C  0.01296656  0.17459728  0.60558778    -0.20200
C1367       C  0.00900956  0.13766639  0.60157374    -0.25500
C1368       C  0.04162434  0.13210959  0.60151540     0.27200
H1369       H  0.11250570  0.22572087  0.61192985     0.13000
N1370       N  0.05590827  0.24524536  0.61263996    -0.82700
H1371       H  0.98011858  0.11262179  0.59903575     0.17800
N1372       N  0.03681129  0.09385701  0.59803380    -0.81300
H1373       H  0.08551871  0.26565879  0.61497374     0.33500
H1374       H  0.04776754  0.25438767  0.60063817     0.37900
H1375       H  0.00724026  0.07323241  0.59575305     0.33400
H1376       H  0.05169130  0.09555616  0.58571058     0.30100
H1377       H  0.15488702  0.18233531  0.56548845     0.33400
H1378       H  0.10633665  0.15708884  0.56945056     0.30100
H1379       H  0.16166516  0.14964896  0.65479413     0.38000
H1380       H  0.13338248  0.10188230  0.64867867     0.33500
C1381       C  0.23771200  0.94711354  0.45462976    -0.20300
C1382       C  0.20995580  0.94248511  0.46832822     0.35900
C1383       C  0.22269806  0.96514237  0.48465492    -0.26300
C1384       C  0.26255201  0.99263893  0.48759861     0.02400
C1385       C  0.29031793  0.99742535  0.47386471     0.27200
C1386       C  0.27767114  0.97431435  0.45766869    -0.25400
N1387       N  0.16908795  0.91408270  0.46587002    -0.82800
H1388       H  0.20144899  0.96078397  0.49534396     0.13000
C1389       C  0.27470983  0.01523065  0.50536230     0.02300
N1390       N  0.33116466  0.02599681  0.47632648    -0.81300
H1391       H  0.29909858  0.97807394  0.44717963     0.17800
C1392       C  0.30384971  0.01444677  0.51633944    -0.26200
C1393       C  0.31480987  0.03373105  0.53361578     0.35800
C1394       C  0.29621666  0.05443490  0.54009868    -0.20200
C1395       C  0.26722135  0.05533132  0.52903655    -0.25500
C1396       C  0.25644566  0.03622014  0.51175849     0.27200
H1397       H  0.31739368  0.99776932  0.51162005     0.13000
N1398       N  0.34392157  0.03137211  0.54474635    -0.82700
H1399       H  0.25310180  0.07144120  0.53379479     0.17800
N1400       N  0.22711007  0.03820407  0.50064428    -0.81300
H1401       H  0.35505329  0.01556984  0.53783577     0.33500
H1402       H  0.32988656  0.01531776  0.55670176     0.37900
H1403       H  0.21626052  0.05441135  0.50741170     0.33400
H1404       H  0.24078918  0.05354040  0.48848512     0.30100
H1405       H  0.34776118  0.02568109  0.46502821     0.33400
H1406       H  0.33367679  0.05380872  0.47649938     0.30100
H1407       H  0.16641923  0.88620235  0.46580250     0.38000
H1408       H  0.15251792  0.91459640  0.47713434     0.33500
C1409       C  0.18536928  0.01051682  0.38395345    -0.20300
C1410       C  0.21323123  0.04745927  0.37656202     0.35900
C1411       C  0.20542081  0.07864010  0.37727208    -0.26300
C1412       C  0.17089268  0.07377656  0.38546900     0.02400
C1413       C  0.14304715  0.03695124  0.39290271     0.27200
C1414       C  0.15078831  0.00597679  0.39213235    -0.25400
N1415       N  0.24946107  0.05344554  0.36867161    -0.82800
H1416       H  0.22649637  0.10706683  0.37156891     0.13000
C1417       C  0.16433737  0.10746252  0.38554795     0.02300
N1418       N  0.10670627  0.02974369  0.40124366    -0.81300
H1419       H  0.12899709  0.97780070  0.39777383     0.17800
C1420       C  0.15208726  0.11696396  0.36910837    -0.26200
C1421       C  0.14639860  0.14941620  0.36832260     0.35800
C1422       C  0.15324865  0.17268869  0.38436320    -0.20200
C1423       C  0.16477854  0.16256779  0.40095071    -0.25500
C1424       C  0.17073805  0.13019294  0.40165704     0.27200
H1425       H  0.14708297  0.09899354  0.35686307     0.13000
N1426       N  0.13359470  0.15875805  0.35134998    -0.82700
H1427       H  0.17036199  0.18069732  0.41318331     0.17800
N1428       N  0.18448568  0.12105053  0.41839293    -0.81300
H1429       H  0.13042048  0.13900141  0.34083494     0.33500
H1430       H  0.10568987  0.15506146  0.35375011     0.37900
H1431       H  0.18886207  0.14141198  0.42880666     0.33400
H1432       H  0.16233754  0.09375898  0.42318443     0.30100
H1433       H  0.08373354  0.00829620  0.39330015     0.33400
H1434       H  0.10351597  0.05457700  0.40091268     0.30100
H1435       H  0.26566444  0.05040448  0.37939735     0.38000
H1436       H  0.26630961  0.08218206  0.36367065     0.33500
C1437       C  0.15754206  0.49388753  0.38017418    -0.20300
C1438       C  0.15606606  0.51531362  0.39565486     0.35900
C1439       C  0.15973666  0.55249068  0.39286659    -0.26300
C1440       C  0.16468069  0.56875487  0.37502928     0.02400
C1441       C  0.16471064  0.54685640  0.35946525     0.27200
C1442       C  0.16154865  0.51007305  0.36226584    -0.25400
N1443       N  0.15147803  0.49977433  0.41414568    -0.82800
H1444       H  0.15919387  0.56923228  0.40472671     0.13000
C1445       C  0.16858465  0.60813885  0.37322181     0.02300
N1446       N  0.16744723  0.56056759  0.34067808    -0.81300
H1447       H  0.16195869  0.49388664  0.35015625     0.17800
C1448       C  0.20477495  0.64060676  0.36804518    -0.26200
C1449       C  0.20980131  0.67874981  0.36734249     0.35800
C1450       C  0.17798617  0.68424344  0.37221456    -0.20200
C1451       C  0.14161890  0.65136507  0.37689970    -0.25500
C1452       C  0.13656433  0.61344118  0.37735387     0.27200
H1453       H  0.22923822  0.63615184  0.36483979     0.13000
N1454       N  0.24741693  0.71184400  0.36263729    -0.82700
H1455       H  0.11697996  0.65533418  0.38040551     0.17800
N1456       N  0.09916646  0.58023003  0.38224286    -0.81300
H1457       H  0.26815108  0.70288261  0.36063673     0.33500
H1458       H  0.24449297  0.72260257  0.34981702     0.37900
H1459       H  0.07867571  0.58915922  0.38507368     0.33400
H1460       H  0.08877319  0.56181450  0.37063924     0.30100
H1461       H  0.14155294  0.54071338  0.33385447     0.33400
H1462       H  0.16876497  0.58775350  0.34010108     0.30100
H1463       H  0.17694742  0.49884579  0.41735427     0.38000
H1464       H  0.14964112  0.51868218  0.42381350     0.33500
C1465       C  0.18236852  0.81432403  0.29559354    -0.20300
C1466       C  0.14978949  0.80382760  0.28379821     0.35900
C1467       C  0.15511777  0.80608004  0.26439575    -0.26300
C1468       C  0.19207150  0.81815952  0.25649534     0.02400
C1469       C  0.22428535  0.82739012  0.26812174     0.27200
C1470       C  0.21920487  0.82559015  0.28751339    -0.25400
N1471       N  0.11142093  0.79078511  0.29148646    -0.82800
H1472       H  0.13035160  0.79851706  0.25533316     0.13000
C1473       C  0.19644826  0.82078657  0.23596664     0.02300
N1474       N  0.26202109  0.83860458  0.26015415    -0.81300
H1475       H  0.24442058  0.83374206  0.29633770     0.17800
C1476       C  0.21574650  0.85779489  0.22733957    -0.26200
C1477       C  0.21838499  0.86127575  0.20782332     0.35800
C1478       C  0.20131889  0.82692211  0.19673780    -0.20200
C1479       C  0.18331972  0.78994833  0.20553868    -0.25500
C1480       C  0.18063485  0.78656754  0.22500433     0.27200
H1481       H  0.22822442  0.88401242  0.23588429     0.13000
N1482       N  0.23828985  0.89947276  0.19926573    -0.82700
H1483       H  0.17008370  0.76346437  0.19717970     0.17800
N1484       N  0.16141288  0.74851836  0.23372581    -0.81300
H1485       H  0.24895155  0.92157935  0.20935275     0.33500
H1486       H  0.26281572  0.90202955  0.19227733     0.37900
H1487       H  0.15106703  0.72624518  0.22372941     0.33400
H1488       H  0.18251190  0.74598553  0.24148989     0.30100
H1489       H  0.28278073  0.84474053  0.27058634     0.33400
H1490       H  0.25933413  0.81435486  0.25284104     0.30100
H1491       H  0.10268244  0.76422594  0.29839050     0.38000
H1492       H  0.09090051  0.78466238  0.28093750     0.33500
C1493       C  0.83241933  0.62526324  0.69690407    -0.20300
C1494       C  0.86605090  0.64105876  0.70841072     0.35900
C1495       C  0.86135861  0.63888807  0.72786147    -0.26300
C1496       C  0.82387167  0.62109910  0.73596690     0.02400
C1497       C  0.79036929  0.60387388  0.72459872     0.27200
C1498       C  0.79492772  0.60621288  0.70522183    -0.25400
N1499       N  0.90470506  0.65910338  0.70037242    -0.82800
H1500       H  0.88698846  0.65162027  0.73676705     0.13000
C1501       C  0.81993115  0.62190126  0.75638886     0.02300
N1502       N  0.75185719  0.58446988  0.73283714    -0.81300
H1503       H  0.76891634  0.59386075  0.69658198     0.17800
C1504       C  0.80755432  0.64667016  0.76415612    -0.26200
C1505       C  0.80434901  0.64918754  0.78351012     0.35800
C1506       C  0.81386633  0.62633264  0.79535538    -0.20200
C1507       C  0.82511461  0.60063786  0.78734531    -0.25500
C1508       C  0.82824201  0.59823475  0.76802279     0.27200
H1509       H  0.80076668  0.66442372  0.75502717     0.13000
N1510       N  0.79176662  0.67502639  0.79106771    -0.82700
H1511       H  0.83259330  0.58300390  0.79617244     0.17800
N1512       N  0.84016678  0.57214316  0.76014851    -0.81300
H1513       H  0.78677517  0.69021799  0.78047055     0.33500
H1514       H  0.76472801  0.65752654  0.79763099     0.37900
H1515       H  0.84558911  0.55700182  0.77061625     0.33400
H1516       H  0.81657334  0.55096127  0.75240507     0.30100
H1517       H  0.73019690  0.57353782  0.72256167     0.33400
H1518       H  0.74881571  0.56010779  0.74018176     0.30100
H1519       H  0.90711358  0.63726673  0.69316064     0.38000
H1520       H  0.92612865  0.66930782  0.71075791     0.33500
C1521       C  0.48168222  0.31357009  0.62203389    -0.20300
C1522       C  0.48310340  0.34634624  0.61292654     0.35900
C1523       C  0.51896448  0.38147056  0.61143560    -0.26300
C1524       C  0.55285794  0.38529495  0.61960428     0.02400
C1525       C  0.55128093  0.35399404  0.62982519     0.27200
C1526       C  0.51568104  0.31816136  0.63082206    -0.25400
N1527       N  0.44814573  0.34415569  0.60543826    -0.82800
H1528       H  0.52046888  0.40634063  0.60412144     0.13000
C1529       C  0.58942898  0.42315288  0.61785168     0.02300
N1530       N  0.58586154  0.35875359  0.63899830    -0.81300
H1531       H  0.51481205  0.29353045  0.63805542     0.17800
C1532       C  0.60151668  0.44923655  0.63282215    -0.26200
C1533       C  0.63526674  0.48620272  0.63147364     0.35800
C1534       C  0.65699366  0.49745695  0.61479139    -0.20200
C1535       C  0.64437533  0.47155874  0.59962567    -0.25500
C1536       C  0.61093242  0.43405450  0.60111458     0.27200
H1537       H  0.58457566  0.44086431  0.64558621     0.13000
N1538       N  0.64719829  0.51246635  0.64700906    -0.82700
H1539       H  0.66144876  0.48001860  0.58690362     0.17800
N1540       N  0.59892377  0.40679339  0.58588505    -0.81300
H1541       H  0.62413821  0.51742171  0.65039691     0.33500
H1542       H  0.65176833  0.49847120  0.65829625     0.37900
H1543       H  0.61786497  0.41942049  0.57456373     0.33400
H1544       H  0.60175966  0.38285819  0.59015540     0.30100
H1545       H  0.57969090  0.33300912  0.64606320     0.33400
H1546       H  0.60657432  0.36315142  0.62875999     0.30100
H1547       H  0.42956833  0.34038240  0.61662317     0.38000
H1548       H  0.45453682  0.37064648  0.59905896     0.33500
C1549       C  0.17709369  0.97391877  0.60991983    -0.20300
C1550       C  0.16150542  0.94841105  0.62538983     0.35900
C1551       C  0.12388305  0.91512703  0.62424422    -0.26300
C1552       C  0.10192263  0.90528425  0.60779322     0.02400
C1553       C  0.11784608  0.92990809  0.59210571     0.27200
C1554       C  0.15488971  0.96423053  0.59343349    -0.25400
N1555       N  0.18317060  0.95682883  0.64245945    -0.82800
H1556       H  0.11141276  0.89674729  0.63641051     0.13000
C1557       C  0.06184191  0.86984173  0.60767314     0.02300
N1558       N  0.09644548  0.91995891  0.57490947    -0.81300
H1559       H  0.16660784  0.98337735  0.58144983     0.17800
C1560       C  0.02962571  0.87345962  0.60198080    -0.26200
C1561       C  0.99099476  0.84161444  0.60322218     0.35800
C1562       C  0.98427371  0.80522785  0.61045071    -0.20200
C1563       C  0.01655321  0.80160155  0.61606007    -0.25500
C1564       C  0.05519743  0.83322761  0.61448350     0.27200
H1565       H  0.03450823  0.90168232  0.59711752     0.13000
N1566       N  0.95855786  0.84658605  0.59776922    -0.82700
H1567       H  0.01167464  0.77369501  0.62140551     0.17800
N1568       N  0.08778352  0.82826330  0.61969363    -0.81300
H1569       H  0.96852319  0.87490024  0.59256651     0.33500
H1570       H  0.94244372  0.84402929  0.60977167     0.37900
H1571       H  0.07794254  0.79972115  0.62454531     0.33400
H1572       H  0.10427183  0.83172226  0.60770729     0.30100
H1573       H  0.11208598  0.94123027  0.56477388     0.33400
H1574       H  0.09406820  0.89367506  0.57015867     0.30100
H1575       H  0.20657951  0.95180348  0.64013260     0.38000
H1576       H  0.16609366  0.93702024  0.65286273     0.33500
C1577       C  0.82058651  0.31206701  0.61219614    -0.20300
C1578       C  0.79655465  0.31722008  0.62531822     0.35900
C1579       C  0.79474271  0.35208840  0.62512426    -0.26300
C1580       C  0.81523220  0.38137842  0.61180024     0.02400
C1581       C  0.83714844  0.37527770  0.59800076     0.27200
C1582       C  0.83983981  0.34095824  0.59843023    -0.25400
N1583       N  0.77404668  0.28724738  0.63879202    -0.82800
H1584       H  0.77784022  0.35681088  0.63568031     0.13000
C1585       C  0.81576299  0.41939541  0.61322616     0.02300
N1586       N  0.85703376  0.40426760  0.58374237    -0.81300
H1587       H  0.85776114  0.33723669  0.58807928     0.17800
C1588       C  0.85217891  0.45420657  0.61446213    -0.26200
C1589       C  0.85450107  0.49094404  0.61589704     0.35800
C1590       C  0.81964010  0.49288302  0.61623970    -0.20200
C1591       C  0.78313554  0.45811767  0.61556088    -0.25500
C1592       C  0.78079722  0.42128509  0.61392956     0.27200
H1593       H  0.87894824  0.45263553  0.61442735     0.13000
N1594       N  0.89207553  0.52630243  0.61715427    -0.82700
H1595       H  0.75645270  0.45985856  0.61565367     0.17800
N1596       N  0.74319943  0.38596362  0.61269838    -0.81300
H1597       H  0.91481292  0.51976433  0.61668407     0.33500
H1598       H  0.89362459  0.53880104  0.63017541     0.37900
H1599       H  0.72048256  0.39248828  0.61353011     0.33400
H1600       H  0.74128718  0.37375549  0.59956789     0.30100
H1601       H  0.87227802  0.39557858  0.57478398     0.33400
H1602       H  0.83558650  0.40572588  0.57576290     0.30100
H1603       H  0.75290058  0.26279840  0.63149948     0.38000
H1604       H  0.75864299  0.29607838  0.64756811     0.33500
C1605       C  0.81961839  0.81637502  0.60953995    -0.20300
C1606       C  0.78668491  0.82165431  0.61115865     0.35900
C1607       C  0.79238139  0.86001667  0.61092434    -0.26300
C1608       C  0.83019748  0.89276149  0.60918076     0.02400
C1609       C  0.86286756  0.88745990  0.60726099     0.27200
C1610       C  0.85720138  0.84933646  0.60736383    -0.25400
N1611       N  0.74780697  0.78827266  0.61291197    -0.82800
H1612       H  0.76743358  0.86452040  0.61233645     0.13000
C1613       C  0.83568401  0.93272533  0.60992952     0.02300
N1614       N  0.90170145  0.92091648  0.60540799    -0.81300
H1615       H  0.88246328  0.84537849  0.60614763     0.17800
C1616       C  0.85524232  0.95660701  0.62521530    -0.26200
C1617       C  0.86167650  0.99502419  0.62639962     0.35800
C1618       C  0.84843387  0.00965263  0.61191954    -0.20200
C1619       C  0.82954435  0.98601830  0.59644853    -0.25500
C1620       C  0.82272380  0.94739413  0.59538169     0.27200
H1621       H  0.86535739  0.94508416  0.63625614     0.13000
N1622       N  0.88171643  0.01931623  0.64215366    -0.82700
H1623       H  0.81923012  0.99740393  0.58543140     0.17800
N1624       N  0.80258229  0.92293222  0.57970318    -0.81300
H1625       H  0.88946615  0.00405918  0.65156771     0.33500
H1626       H  0.90796677  0.04316363  0.63736410     0.37900
H1627       H  0.79465469  0.93807308  0.57030630     0.33400
H1628       H  0.82234770  0.91685503  0.57276055     0.30100
H1629       H  0.92261549  0.91194149  0.60434660     0.33400
H1630       H  0.90269285  0.93493516  0.59290494     0.30100
H1631       H  0.74152188  0.77208925  0.60060520     0.38000
H1632       H  0.72701358  0.79739114  0.61405714     0.33500
C1633       C  0.64295894  0.82193832  0.29915893    -0.20300
C1634       C  0.61673283  0.78600178  0.29020460     0.35900
C1635       C  0.61733455  0.78341317  0.27075710    -0.26300
C1636       C  0.64291579  0.81585766  0.25999918     0.02400
C1637       C  0.66806856  0.85201133  0.26864553     0.27200
C1638       C  0.66791845  0.85470685  0.28811344    -0.25400
N1639       N  0.59017466  0.75189812  0.30076069    -0.82800
H1640       H  0.59777049  0.75586328  0.26389720     0.13000
C1641       C  0.64364888  0.81136447  0.23964408     0.02300
N1642       N  0.69409439  0.88561156  0.25760196    -0.81300
H1643       H  0.68796136  0.88243621  0.29468750     0.17800
C1644       C  0.62775493  0.82866878  0.22820977    -0.26200
C1645       C  0.62927764  0.82642807  0.20879464     0.35800
C1646       C  0.64705051  0.80622423  0.20066053    -0.20200
C1647       C  0.66264736  0.78859011  0.21223044    -0.25500
C1648       C  0.66095557  0.79083974  0.23167982     0.27200
H1649       H  0.61463743  0.84449159  0.23450347     0.13000
N1650       N  0.61392163  0.84566258  0.19736316    -0.82700
H1651       H  0.67625872  0.77311649  0.20607643     0.17800
N1652       N  0.67703431  0.77274283  0.24341093    -0.81300
H1653       H  0.60119187  0.85840625  0.20551601     0.33500
H1654       H  0.63767168  0.86874174  0.19046341     0.37900
H1655       H  0.68847472  0.75855544  0.23540206     0.33400
H1656       H  0.70065628  0.79515535  0.25065251     0.30100
H1657       H  0.71061710  0.91008396  0.26605849     0.33400
H1658       H  0.71404252  0.87923641  0.25105354     0.30100
H1659       H  0.56757133  0.75664463  0.30522920     0.38000
H1660       H  0.57680782  0.72698672  0.29227031     0.33500
C1661       C  0.71893227  0.76898465  0.45866664    -0.20300
C1662       C  0.69313581  0.75702194  0.47406447     0.35900
C1663       C  0.70424066  0.74665687  0.49071503    -0.26300
C1664       C  0.74059012  0.74840293  0.49221645     0.02400
C1665       C  0.76672416  0.76114908  0.47704128     0.27200
C1666       C  0.75571504  0.77154142  0.46039754    -0.25400
N1667       N  0.65605933  0.75587776  0.47279112    -0.82800
H1668       H  0.68443861  0.73686147  0.50251932     0.13000
C1669       C  0.75034025  0.73493130  0.50945414     0.02300
N1670       N  0.80396010  0.76269990  0.47854061    -0.81300
H1671       H  0.77551210  0.78077838  0.44859278     0.17800
C1672       C  0.74607710  0.69733199  0.50980707    -0.26200
C1673       C  0.75665370  0.68375959  0.52557159     0.35800
C1674       C  0.77175770  0.70847178  0.54124701    -0.20200
C1675       C  0.77579980  0.74610643  0.54088255    -0.25500
C1676       C  0.76477076  0.75945002  0.52515073     0.27200
H1677       H  0.73484550  0.67874416  0.49763220     0.13000
N1678       N  0.75290208  0.64538739  0.52558129    -0.82700
H1679       H  0.78696474  0.76482550  0.55301973     0.17800
N1680       N  0.76775844  0.79748679  0.52508035    -0.81300
H1681       H  0.74100610  0.63091335  0.51303368     0.33500
H1682       H  0.78118766  0.64925890  0.52643734     0.37900
H1683       H  0.77824152  0.81152453  0.53785397     0.33400
H1684       H  0.78870067  0.81472277  0.51510430     0.30100
H1685       H  0.81950719  0.77212316  0.46603430     0.33400
H1686       H  0.82056195  0.78398024  0.48848732     0.30100
H1687       H  0.66198027  0.78474265  0.47084523     0.38000
H1688       H  0.64049997  0.74610398  0.48527883     0.33500
C1689       C  0.82980029  0.97080456  0.38293562    -0.20300
C1690       C  0.82635184  0.00444157  0.37955352     0.35900
C1691       C  0.85989156  0.04185645  0.38042964    -0.26300
C1692       C  0.89669576  0.04643007  0.38468844     0.02400
C1693       C  0.90026427  0.01302437  0.38826747     0.27200
C1694       C  0.86658011  0.97542806  0.38758837    -0.25400
N1695       N  0.78869700  0.00053165  0.37555492    -0.82800
H1696       H  0.85737976  0.06773722  0.37787794     0.13000
C1697       C  0.93108889  0.08666529  0.38515120     0.02300
N1698       N  0.93811534  0.01744170  0.39220616    -0.81300
H1699       H  0.86918007  0.94962118  0.39019860     0.17800
C1700       C  0.94985912  0.10259602  0.40207434    -0.26200
C1701       C  0.98115752  0.14156421  0.40315562     0.35800
C1702       C  0.99385829  0.16502002  0.38688291    -0.20200
C1703       C  0.97470788  0.14880621  0.36998164    -0.25500
C1704       C  0.94377568  0.10976680  0.36892796     0.27200
H1705       H  0.93960416  0.08469289  0.41451598     0.13000
N1706       N  0.99971380  0.15740269  0.42072379    -0.82700
H1707       H  0.98464782  0.16628223  0.35740795     0.17800
N1708       N  0.92538117  0.09321382  0.35141886    -0.81300
H1709       H  0.98713419  0.13619893  0.43119602     0.33500
H1710       H  0.99412764  0.18002055  0.42422376     0.37900
H1711       H  0.93801708  0.11406244  0.34080397     0.33400
H1712       H  0.93115772  0.07057579  0.34824899     0.30100
H1713       H  0.93567840  0.98999760  0.39451482     0.33400
H1714       H  0.95553734  0.02914221  0.38033956     0.30100
H1715       H  0.77105909  0.98874670  0.38735176     0.38000
H1716       H  0.79135696  0.02808608  0.37330205     0.33500
C1717       C  0.32090509  0.48380888  0.37565323    -0.20300
C1718       C  0.32635382  0.52049304  0.36971820     0.35900
C1719       C  0.36381419  0.55413113  0.37120402    -0.26300
C1720       C  0.39565972  0.55186149  0.37864952     0.02400
C1721       C  0.39052706  0.51512245  0.38405739     0.27200
C1722       C  0.35329453  0.48155284  0.38248790    -0.25400
N1723       N  0.29376888  0.52381228  0.36287808    -0.82800
H1724       H  0.36802372  0.58252121  0.36704060     0.13000
C1725       C  0.43424285  0.58826437  0.38068843     0.02300
N1726       N  0.42309564  0.51212171  0.39120771    -0.81300
H1727       H  0.34941126  0.45341468  0.38689777     0.17800
C1728       C  0.45115866  0.60012473  0.39835874    -0.26200
C1729       C  0.48772657  0.63462172  0.40076446     0.35800
C1730       C  0.50744747  0.65814614  0.38507707    -0.20200
C1731       C  0.49001300  0.64588053  0.36744090    -0.25500
C1732       C  0.45400822  0.61116726  0.36508164     0.27200
H1733       H  0.43565566  0.58233307  0.41032617     0.13000
N1734       N  0.50413641  0.64598968  0.41907142    -0.82700
H1735       H  0.50479108  0.66312920  0.35524893     0.17800
N1736       N  0.43756434  0.59879606  0.34683752    -0.81300
H1737       H  0.48439351  0.62711357  0.42907450     0.33500
H1738       H  0.52852733  0.64204256  0.41972814     0.37900
H1739       H  0.45555955  0.61912745  0.33680710     0.33400
H1740       H  0.43709422  0.57246538  0.34389807     0.30100
H1741       H  0.41427250  0.48301770  0.39473716     0.33400
H1742       H  0.44374658  0.51999341  0.38052221     0.30100
H1743       H  0.27404706  0.51734873  0.37387737     0.38000
H1744       H  0.30298567  0.55276805  0.35889269     0.33500
C1745       C  0.82860182  0.80030032  0.38378320    -0.20300
C1746       C  0.84648758  0.79943466  0.36684877     0.35900
C1747       C  0.88522081  0.80642099  0.36695998    -0.26300
C1748       C  0.90621131  0.81337639  0.38358413     0.02400
C1749       C  0.88792106  0.81257952  0.40055953     0.27200
C1750       C  0.84943647  0.80639455  0.40047955    -0.25400
N1751       N  0.82616950  0.79346621  0.34950661    -0.82800
H1752       H  0.89943442  0.80703539  0.35395055     0.13000
C1753       C  0.94746242  0.82173264  0.38287069     0.02300
N1754       N  0.90863166  0.81832416  0.41776069    -0.81300
H1755       H  0.83575489  0.80675578  0.41350756     0.17800
C1756       C  0.97785284  0.85784320  0.38948470    -0.26200
C1757       C  0.01740205  0.86721504  0.38840542     0.35800
C1758       C  0.02660456  0.83968558  0.38063457    -0.20200
C1759       C  0.99603450  0.80373783  0.37390051    -0.25500
C1760       C  0.95663366  0.79434809  0.37509419     0.27200
H1761       H  0.97067051  0.87902718  0.39521568     0.13000
N1762       N  0.04813801  0.90478880  0.39478254    -0.82700
H1763       H  0.00282977  0.78237739  0.36804703     0.17800
N1764       N  0.92577865  0.75687493  0.36866480    -0.81300
H1765       H  0.03635777  0.92142009  0.40020906     0.33500
H1766       H  0.06490768  0.92015240  0.38320927     0.37900
H1767       H  0.93742451  0.74011073  0.36325902     0.33400
H1768       H  0.90880114  0.74154520  0.38019345     0.30100
H1769       H  0.89108403  0.81693821  0.42899748     0.33400
H1770       H  0.91395722  0.79490298  0.41934049     0.30100
H1771       H  0.80364700  0.76411556  0.34913321     0.38000
H1772       H  0.84468893  0.79696446  0.33833613     0.33500
C1773       C  0.52346871  0.83608553  0.38040921    -0.20300
C1774       C  0.52169447  0.86756061  0.38918039     0.35900
C1775       C  0.48598839  0.86755516  0.38963659    -0.26300
C1776       C  0.45234123  0.83749445  0.38121520     0.02400
C1777       C  0.45398990  0.80669821  0.37203953     0.27200
C1778       C  0.48953511  0.80625812  0.37172312    -0.25400
N1779       N  0.55609493  0.89968521  0.39740075    -0.82800
H1780       H  0.48442270  0.89144754  0.39637211     0.13000
C1781       C  0.41586042  0.83952265  0.38170287     0.02300
N1782       N  0.41946905  0.77590815  0.36324108    -0.81300
H1783       H  0.49042255  0.78200328  0.36500932     0.17800
C1784       C  0.40344103  0.84963002  0.36547768    -0.26200
C1785       C  0.36980057  0.85344923  0.36548208     0.35800
C1786       C  0.34805712  0.84668844  0.38209858    -0.20200
C1787       C  0.36096110  0.83709287  0.39841470    -0.25500
C1788       C  0.39452191  0.83303802  0.39832262     0.27200
H1789       H  0.42041978  0.85504063  0.35283724     0.13000
N1790       N  0.35801612  0.86473460  0.34876021    -0.82700
H1791       H  0.34417845  0.83162693  0.41112142     0.17800
N1792       N  0.40684601  0.82193833  0.41492766    -0.81300
H1793       H  0.37701939  0.86831472  0.33779660     0.33500
H1794       H  0.36063084  0.89224423  0.35109238     0.37900
H1795       H  0.38803043  0.81836000  0.42597749     0.33400
H1796       H  0.40416094  0.79440746  0.41255264     0.30100
H1797       H  0.42560224  0.75545527  0.35705121     0.33400
H1798       H  0.39862614  0.76086763  0.37362586     0.30100
H1799       H  0.57585869  0.91478789  0.38663789     0.38000
H1800       H  0.54940272  0.91973917  0.40360084     0.33500
loop_ 
_geom_bond_atom_site_label_1 
_geom_bond_atom_site_label_2 
_geom_bond_distance 
_geom_bond_site_symmetry_2 
_ccdc_geom_bond_type 
Zr1           O2   2.439       .  S
Zr1           O3   2.422       .  S
Zr1           O4   2.426       .  S
Zr1           O7   2.432       .  S
Zr1           O9   2.383       .  S
Zr1          O10   2.381       .  S
Zr1          O11   2.403       .  S
Zr1          O12   2.392       .  S
O2           H58   0.990       .  S
O2           H66   0.990       .  S
O3           C23   1.283       .  A
O4           C25   1.283       .  A
O5          Zr15   2.424       .  S
O5           C24   1.284       .  A
O6          Zr14   2.423       .  S
O6           C25   1.283       .  A
O7           C24   1.285       .  A
O8          Zr16   2.438       .  S
O8           C23   1.285       .  A
O9          Zr14   2.393       .  S
O9          Zr16   2.372       .  S
O10         Zr15   2.388       .  S
O10         Zr16   2.378       .  S
O10          H45   0.966       .  S
O11         Zr14   2.397       .  S
O11         Zr31   2.393       .  S
O11          H48   0.966       .  S
O12         Zr15   2.385       .  S
O12         Zr31   2.383       .  S
Zr13         O38   2.440       .  S
Zr13         O32   2.446       .  S
Zr13         O40   2.446       .  S
Zr13         O28   2.429       .  S
Zr13         O19   2.397       .  S
Zr13         O20   2.419       .  S
Zr13         O21   2.377       .  S
Zr13         O22   2.381       .  S
Zr14         O33   2.435       .  S
Zr14         O26   2.434       .  S
Zr14         O27   2.432       .  S
Zr14         O20   2.398       .  S
Zr14         O21   2.391       .  S
Zr15         O17   2.435       .  S
Zr15         O39   2.440       .  S
Zr15         O41   2.432       .  S
Zr15         O19   2.380       .  S
Zr15         O22   2.395       .  S
Zr16         O42   2.436       .  S
Zr16         O43   2.436       .  S
Zr16         O18   2.437       .  S
Zr16         O19   2.389       .  S
Zr16         O20   2.404       .  S
O17          H54   0.990       .  S
O18          H49   0.990       .  S
O18          H63   0.990       .  S
O20          H46   0.966       .  S
O21         Zr31   2.379       .  S
O22         Zr31   2.393       .  S
O22          H47   0.966       .  S
C23        C1745   1.485       .  S
C24        C1689   1.477       .  S
C25        C1661   1.475       .  S
O26          H62   0.990       .  S
O27          C29   1.283       .  A
O28          C29   1.283       .  A
C29        C1730   1.492       .  S
O30         Zr31   2.439       .  S
O30          H59   0.990       .  S
Zr31         O34   2.438       .  S
Zr31         O35   2.438       .  S
Zr31         O36   2.404       .  S
O32          C37   1.285       .  A
O33          H50   0.990       .  S
O33          H65   0.990       .  S
O34          H51   0.990       .  S
O35          H55   0.990       .  S
O35          H64   0.990       .  S
O36          C37   1.278       .  A
C37        C1773   1.488       .  S
O38          H57   0.991       .  S
O38          H61   0.990       .  S
O39          H53   0.990       .  S
O39          H60   0.990       .  S
O40          C44   1.286       .  A
O41          C44   1.285       .  A
O42          H52   0.990       .  S
O43          H56   0.991       .  S
C44        C1633   1.494       .  S
Zr67         O68   2.438       .  S
Zr67         O69   2.415       .  S
Zr67         O70   2.428       .  S
Zr67         O73   2.427       .  S
Zr67         O75   2.381       .  S
Zr67         O76   2.380       .  S
Zr67         O77   2.398       .  S
Zr67         O78   2.396       .  S
O68         H124   0.990       .  S
O68         H132   0.990       .  S
O69          C89   1.282       .  A
O70          C91   1.284       .  A
O71         Zr81   2.441       .  S
O71          C90   1.287       .  A
O72         Zr80   2.426       .  S
O72          C91   1.283       .  A
O73          C90   1.285       .  A
O74         Zr82   2.431       .  S
O74          C89   1.283       .  A
O75         Zr80   2.389       .  S
O75         Zr82   2.370       .  S
O76         Zr81   2.394       .  S
O76         Zr82   2.379       .  S
O76         H111   0.966       .  S
O77         Zr80   2.397       .  S
O77         Zr97   2.395       .  S
O77         H114   0.966       .  S
O78         Zr81   2.393       .  S
O78         Zr97   2.389       .  S
Zr79        O104   2.443       .  S
Zr79         O98   2.447       .  S
Zr79        O106   2.434       .  S
Zr79         O94   2.418       .  S
Zr79         O85   2.393       .  S
Zr79         O86   2.418       .  S
Zr79         O87   2.373       .  S
Zr79         O88   2.380       .  S
Zr80         O99   2.436       .  S
Zr80         O92   2.436       .  S
Zr80         O93   2.424       .  S
Zr80         O86   2.401       .  S
Zr80         O87   2.389       .  S
Zr81         O83   2.437       .  S
Zr81        O105   2.439       .  S
Zr81        O107   2.444       .  S
Zr81         O85   2.382       .  S
Zr81         O88   2.397       .  S
Zr82        O108   2.436       .  S
Zr82        O109   2.436       .  S
Zr82         O84   2.435       .  S
Zr82         O85   2.386       .  S
Zr82         O86   2.407       .  S
O83         H120   0.990       .  S
O84         H115   0.990       .  S
O84         H129   0.990       .  S
O86         H112   0.967       .  S
O87         Zr97   2.376       .  S
O88         Zr97   2.392       .  S
O88         H113   0.965       .  S
C89        C1605   1.477       .  S
C90        C1562   1.487       .  S
C91        C1674   1.474       .  S
O92         H128   0.990       .  S
O93          C95   1.282       .  A
O94          C95   1.280       .  A
C95        C1534   1.469       .  S
O96         Zr97   2.438       .  S
O96         H125   0.990       .  S
Zr97        O100   2.439       .  S
Zr97        O101   2.437       .  S
Zr97        O102   2.402       .  S
O98         C103   1.284       .  A
O99         H116   0.990       .  S
O99         H131   0.990       .  S
O100        H117   0.990       .  S
O101        H121   0.990       .  S
O101        H130   0.990       .  S
O102        C103   1.277       .  A
C103       C1590   1.472       .  S
O104        H123   0.990       .  S
O104        H127   0.991       .  S
O105        H119   0.990       .  S
O105        H126   0.990       .  S
O106        C110   1.285       .  A
O107        C110   1.287       .  A
O108        H118   0.990       .  S
O109        H122   0.990       .  S
C110       C1493   1.489       .  S
Zr133       O134   2.437       .  S
Zr133       O135   2.404       .  S
Zr133       O136   2.453       .  S
Zr133       O139   2.441       .  S
Zr133       O141   2.377       .  S
Zr133       O142   2.386       .  S
Zr133       O143   2.398       .  S
Zr133       O144   2.395       .  S
O134        H190   0.990       .  S
O134        H198   0.990       .  S
O135        C155   1.280       .  A
O136        C157   1.289       .  A
O137       Zr147   2.428       .  S
O137        C156   1.285       .  A
O138       Zr146   2.420       .  S
O138        C157   1.283       .  A
O139        C156   1.287       .  A
O140       Zr148   2.430       .  S
O140        C155   1.283       .  A
O141       Zr146   2.388       .  S
O141       Zr148   2.366       .  S
O142       Zr147   2.388       .  S
O142       Zr148   2.380       .  S
O142        H177   0.966       .  S
O143       Zr146   2.398       .  S
O143       Zr163   2.395       .  S
O143        H180   0.967       .  S
O144       Zr147   2.392       .  S
O144       Zr163   2.383       .  S
Zr145       O170   2.441       .  S
Zr145       O164   2.444       .  S
Zr145       O172   2.435       .  S
Zr145       O160   2.424       .  S
Zr145       O151   2.394       .  S
Zr145       O152   2.414       .  S
Zr145       O153   2.380       .  S
Zr145       O154   2.385       .  S
Zr146       O165   2.435       .  S
Zr146       O158   2.434       .  S
Zr146       O159   2.426       .  S
Zr146       O152   2.400       .  S
Zr146       O153   2.391       .  S
Zr147       O149   2.436       .  S
Zr147       O171   2.440       .  S
Zr147       O173   2.436       .  S
Zr147       O151   2.383       .  S
Zr147       O154   2.392       .  S
Zr148       O174   2.435       .  S
Zr148       O175   2.435       .  S
Zr148       O150   2.437       .  S
Zr148       O151   2.388       .  S
Zr148       O152   2.406       .  S
O149        H186   0.990       .  S
O150        H181   0.990   1_565  S
O150        H195   0.990       .  S
O152        H178   0.965       .  S
O153       Zr163   2.379       .  S
O154       Zr163   2.393       .  S
O154        H179   0.966       .  S
C155       C1409   1.477   1_565  S
C156       C1758   1.485       .  S
C157       C1381   1.487       .  S
O158        H194   0.990       .  S
O159        C161   1.283       .  A
O160        C161   1.281       .  A
C161       C1786   1.477       .  S
O162       Zr163   2.436       .  S
O162        H191   0.990       .  S
Zr163       O166   2.437       .  S
Zr163       O167   2.438       .  S
Zr163       O168   2.403       .  S
O164        C169   1.284       .  A
O165        H182   0.990       .  S
O165        H197   0.990       .  S
O166        H183   0.990       .  S
O167        H187   0.990       .  S
O167        H196   0.990       .  S
O168        C169   1.279       .  A
C169       C1450   1.481       .  S
O170        H189   0.990       .  S
O170        H193   0.990       .  S
O171        H185   0.990       .  S
O171        H192   0.989       .  S
O172        C176   1.285       .  A
O173        C176   1.285       .  A
O174        H184   0.990       .  S
O175        H188   0.990       .  S
C176       C1465   1.492       .  S
Zr199       O200   2.440       .  S
Zr199       O201   2.417       .  S
Zr199       O202   2.433       .  S
Zr199       O205   2.433       .  S
Zr199       O207   2.386       .  S
Zr199       O208   2.387       .  S
Zr199       O209   2.402       .  S
Zr199       O210   2.391       .  S
O200        H256   0.990       .  S
O200        H264   0.990       .  S
O201        C221   1.281       .  A
O202        C223   1.285       .  A
O203       Zr213   2.436       .  S
O203        C222   1.286       .  A
O204       Zr212   2.429       .  S
O204        C223   1.284       .  A
O205        C222   1.286       .  A
O206       Zr214   2.443       .  S
O206        C221   1.285       .  A
O207       Zr212   2.399       .  S
O207       Zr214   2.367       .  S
O208       Zr213   2.395       .  S
O208       Zr214   2.375       .  S
O208        H243   0.965       .  S
O209       Zr212   2.399       .  S
O209       Zr229   2.390       .  S
O209        H246   0.966       .  S
O210       Zr213   2.388       .  S
O210       Zr229   2.373       .  S
Zr211       O236   2.443       .  S
Zr211       O230   2.450       .  S
Zr211       O238   2.431       .  S
Zr211       O226   2.430       .  S
Zr211       O217   2.400       .  S
Zr211       O218   2.422       .  S
Zr211       O219   2.379       .  S
Zr211       O220   2.383       .  S
Zr212       O231   2.435       .  S
Zr212       O224   2.434       .  S
Zr212       O225   2.442       .  S
Zr212       O218   2.398       .  S
Zr212       O219   2.388       .  S
Zr213       O215   2.437       .  S
Zr213       O237   2.440       .  S
Zr213       O239   2.445       .  S
Zr213       O217   2.381       .  S
Zr213       O220   2.395       .  S
Zr214       O240   2.435       .  S
Zr214       O241   2.436       .  S
Zr214       O216   2.436       .  S
Zr214       O217   2.389       .  S
Zr214       O218   2.408       .  S
O215        H252   0.990       .  S
O216        H247   0.990   1_545  S
O216        H261   0.990       .  S
O218        H244   0.966       .  S
O219       Zr229   2.385       .  S
O220       Zr229   2.396       .  S
O220        H245   0.966       .  S
C221       C1549   1.491   1_545  S
C222       C1353   1.481       .  S
C223       C1394   1.487       .  S
O224        H260   0.990       .  S
O225        C227   1.286       .  A
O226        C227   1.281       .  A
C227       C1325   1.489       .  S
O228       Zr229   2.440       .  S
O228        H257   0.990       .  S
Zr229       O232   2.436       .  S
Zr229       O233   2.440       .  S
Zr229       O234   2.389       .  S
O230        C235   1.286       .  A
O231        H248   0.990       .  S
O231        H263   0.990       .  S
O232        H249   0.990       .  S
O233        H253   0.990       .  S
O233        H262   0.990       .  S
O234        C235   1.276       .  A
C235       C1521   1.484       .  S
O236        H255   0.990       .  S
O236        H259   0.990       .  S
O237        H251   0.990       .  S
O237        H258   0.990       .  S
O238        C242   1.281       .  A
O239        C242   1.287       .  A
O240        H250   0.990       .  S
O241        H254   0.990       .  S
C242       C1297   1.476       .  S
Zr265       O266   2.440       .  S
Zr265       O267   2.419       .  S
Zr265       O268   2.428       .  S
Zr265       O271   2.423       .  S
Zr265       O273   2.378       .  S
Zr265       O274   2.383       .  S
Zr265       O275   2.396       .  S
Zr265       O276   2.395       .  S
O266        H322   0.990       .  S
O266        H330   0.991       .  S
O267        C287   1.282       .  A
O268        C289   1.285       .  A
O269       Zr279   2.421       .  S
O269        C288   1.283       .  A
O270       Zr278   2.428       .  S
O270        C289   1.284       .  A
O271        C288   1.284       .  A
O272       Zr280   2.444       .  S
O272        C287   1.287       .  A
O273       Zr278   2.391       .  S
O273       Zr280   2.363       .  S
O274       Zr279   2.384       .  S
O274       Zr280   2.373       .  S
O274        H309   0.965       .  S
O275       Zr278   2.399       .  S
O275       Zr295   2.389       .  S
O275        H312   0.967       .  S
O276       Zr279   2.391       .  S
O276       Zr295   2.384       .  S
Zr277       O302   2.445       .  S
Zr277       O296   2.457       .  S
Zr277       O304   2.429       .  S
Zr277       O292   2.419       .  S
Zr277       O283   2.396       .  S
Zr277       O284   2.417       .  S
Zr277       O285   2.377       .  S
Zr277       O286   2.379       .  S
Zr278       O297   2.435       .  S
Zr278       O290   2.434       .  S
Zr278       O291   2.442       .  S
Zr278       O284   2.394       .  S
Zr278       O285   2.393       .  S
Zr279       O281   2.435       .  S
Zr279       O303   2.438       .  S
Zr279       O305   2.426       .  S
Zr279       O283   2.382       .  S
Zr279       O286   2.388       .  S
Zr280       O306   2.434       .  S
Zr280       O307   2.437       .  S
Zr280       O282   2.438       .  S
Zr280       O283   2.393       .  S
Zr280       O284   2.411       .  S
O281        H318   0.990       .  S
O282        H313   0.990   1_455  S
O282        H327   0.990       .  S
O284        H310   0.967       .  S
O285       Zr295   2.380       .  S
O286       Zr295   2.392       .  S
O286        H311   0.966       .  S
C287       C1702   1.486   1_455  S
C288       C1422   1.471       .  S
C289       C1241   1.486       .  S
O290        H326   0.990       .  S
O291        C293   1.286       .  A
O292        C293   1.280       .  A
C293       C1437   1.491       .  S
O294       Zr295   2.435       .  S
O294        H323   0.990       .  S
Zr295       O298   2.434       .  S
Zr295       O299   2.439       .  S
Zr295       O300   2.389       .  S
O296        C301   1.287       .  A
O297        H314   0.990       .  S
O297        H329   0.990       .  S
O298        H315   0.990       .  S
O299        H319   0.990       .  S
O299        H328   0.990       .  S
O300        C301   1.276       .  A
C301       C1717   1.482       .  S
O302        H321   0.991       .  S
O302        H325   0.990       .  S
O303        H317   0.990       .  S
O303        H324   0.990       .  S
O304        C308   1.284       .  A
O305        C308   1.283       .  A
O306        H316   0.990       .  S
O307        H320   0.990       .  S
C308       C1282   1.483       .  S
Zr331       O332   2.439       .  S
Zr331       O333   2.417       .  S
Zr331       O334   2.437       .  S
Zr331       O337   2.425       .  S
Zr331       O339   2.376       .  S
Zr331       O340   2.382       .  S
Zr331       O341   2.397       .  S
Zr331       O342   2.395       .  S
O332        H388   0.990       .  S
O332        H396   0.991       .  S
O333        C353   1.282       .  A
O334        C355   1.284       .  A
O335       Zr345   2.415       .  S
O335        C354   1.282       .  A
O336       Zr344   2.422       .  S
O336        C355   1.283       .  A
O337        C354   1.284       .  A
O338       Zr346   2.444       .  S
O338        C353   1.286       .  A
O339       Zr344   2.390       .  S
O339       Zr346   2.365       .  S
O340       Zr345   2.387       .  S
O340       Zr346   2.377       .  S
O340        H375   0.965       .  S
O341       Zr344   2.394       .  S
O341       Zr361   2.395       .  S
O341        H378   0.967       .  S
O342       Zr345   2.391       .  S
O342       Zr361   2.381       .  S
Zr343       O368   2.441       .  S
Zr343       O362   2.446       .  S
Zr343       O370   2.441       .  S
Zr343       O358   2.433       .  S
Zr343       O349   2.400       .  S
Zr343       O350   2.417       .  S
Zr343       O351   2.378       .  S
Zr343       O352   2.384       .  S
Zr344       O363   2.437       .  S
Zr344       O356   2.437       .  S
Zr344       O357   2.420       .  S
Zr344       O350   2.401       .  S
Zr344       O351   2.385       .  S
Zr345       O347   2.435       .  S
Zr345       O369   2.440       .  S
Zr345       O371   2.423       .  S
Zr345       O349   2.383       .  S
Zr345       O352   2.391       .  S
Zr346       O372   2.438       .  S
Zr346       O373   2.436       .  S
Zr346       O348   2.437       .  S
Zr346       O349   2.396       .  S
Zr346       O350   2.412       .  S
O347        H384   0.990       .  S
O348        H379   0.990       .  S
O348        H393   0.990       .  S
O350        H376   0.966       .  S
O351       Zr361   2.371       .  S
O352       Zr361   2.393       .  S
O352        H377   0.966       .  S
C353       C1366   1.485   1_655  S
C354       C1618   1.467       .  S
C355       C1254   1.478       .  S
O356        H392   0.990       .  S
O357        C359   1.283       .  A
O358        C359   1.283       .  A
C359       C1577   1.491       .  S
O360       Zr361   2.435       .  S
O360        H389   0.990       .  S
Zr361       O364   2.436       .  S
Zr361       O365   2.436       .  S
Zr361       O366   2.406       .  S
O362        C367   1.287       .  A
O363        H380   0.990       .  S
O363        H395   0.990       .  S
O364        H381   0.990       .  S
O365        H385   0.990       .  S
O365        H394   0.990       .  S
O366        C367   1.279       .  A
C367       C1338   1.489       .  S
O368        H387   0.990       .  S
O368        H391   0.990       .  S
O369        H383   0.990       .  S
O369        H390   0.990       .  S
O370        C374   1.286       .  A
O371        C374   1.283       .  A
O372        H382   0.990       .  S
O373        H386   0.990       .  S
C374       C1226   1.483       .  S
Zr397       O398   2.438       .  S
Zr397       O399   2.416       .  S
Zr397       O400   2.447       .  S
Zr397       O403   2.424       .  S
Zr397       O405   2.379       .  S
Zr397       O406   2.384       .  S
Zr397       O407   2.398       .  S
Zr397       O408   2.399       .  S
O398        H454   0.990       .  S
O398        H462   0.990       .  S
O399        C419   1.282       .  A
O400        C421   1.287       .  A
O401       Zr411   2.427       .  S
O401        C420   1.284       .  A
O402       Zr410   2.439       .  S
O402        C421   1.287       .  A
O403        C420   1.284       .  A
O404       Zr412   2.431       .  S
O404        C419   1.284       .  A
O405       Zr410   2.391       .  S
O405       Zr412   2.373       .  S
O406       Zr411   2.389       .  S
O406       Zr412   2.374       .  S
O406        H441   0.967       .  S
O407       Zr410   2.394       .  S
O407       Zr427   2.400       .  S
O407        H444   0.966       .  S
O408       Zr411   2.390       .  S
O408       Zr427   2.387       .  S
Zr409       O434   2.444       .  S
Zr409       O428   2.446       .  S
Zr409       O436   2.441       .  S
Zr409       O424   2.431       .  S
Zr409       O415   2.391       .  S
Zr409       O416   2.416       .  S
Zr409       O417   2.379       .  S
Zr409       O418   2.383       .  S
Zr410       O429   2.435       .  S
Zr410       O422   2.434       .  S
Zr410       O423   2.430       .  S
Zr410       O416   2.402       .  S
Zr410       O417   2.392       .  S
Zr411       O413   2.435       .  S
Zr411       O435   2.439       .  S
Zr411       O437   2.430       .  S
Zr411       O415   2.385       .  S
Zr411       O418   2.391       .  S
Zr412       O438   2.435       .  S
Zr412       O439   2.435       .  S
Zr412       O414   2.437       .  S
Zr412       O415   2.382       .  S
Zr412       O416   2.401       .  S
O413        H450   0.990       .  S
O414        H445   0.990       .  S
O414        H459   0.990       .  S
O416        H442   0.967       .  S
O417       Zr427   2.381       .  S
O418       Zr427   2.393       .  S
O418        H443   0.966       .  S
C419       C1170   1.481       .  S
C420       C1073   1.480       .  S
C421       C1198   1.504       .  S
O422        H458   0.990       .  S
O423        C425   1.283       .  A
O424        C425   1.282       .  A
C425       C1101   1.488       .  S
O426       Zr427   2.440       .  S
O426        H455   0.990       .  S
Zr427       O430   2.439       .  S
Zr427       O431   2.444       .  S
Zr427       O432   2.400       .  S
O428        C433   1.284       .  A
O429        H446   0.990       .  S
O429        H461   0.990       .  S
O430        H447   0.990       .  S
O431        H451   0.990       .  S
O431        H460   0.989       .  S
O432        C433   1.277       .  A
C433       C1142   1.470       .  S
O434        H453   0.991       .  S
O434        H457   0.990       .  S
O435        H449   0.990       .  S
O435        H456   0.990       .  S
O436        C440   1.286       .  A
O437        C440   1.284       .  A
O438        H448   0.990       .  S
O439        H452   0.990       .  S
C440       C1269   1.487       .  S
Zr463       O464   2.438       .  S
Zr463       O465   2.419       .  S
Zr463       O466   2.448       .  S
Zr463       O469   2.435       .  S
Zr463       O471   2.382       .  S
Zr463       O472   2.387       .  S
Zr463       O473   2.399       .  S
Zr463       O474   2.398       .  S
O464        H520   0.990       .  S
O464        H528   0.991       .  S
O465        C485   1.283       .  A
O466        C487   1.287       .  A
O467       Zr477   2.421       .  S
O467        C486   1.283       .  A
O468       Zr476   2.433       .  S
O468        C487   1.285       .  A
O469        C486   1.286       .  A
O470       Zr478   2.435       .  S
O470        C485   1.285       .  A
O471       Zr476   2.390       .  S
O471       Zr478   2.374       .  S
O472       Zr477   2.391       .  S
O472       Zr478   2.375       .  S
O472        H507   0.965       .  S
O473       Zr476   2.400       .  S
O473       Zr493   2.399       .  S
O473        H510   0.967       .  S
O474       Zr477   2.393       .  S
O474       Zr493   2.387       .  S
Zr475       O500   2.442       .  S
Zr475       O494   2.446       .  S
Zr475       O502   2.438       .  S
Zr475       O490   2.403       .  S
Zr475       O481   2.393       .  S
Zr475       O482   2.413       .  S
Zr475       O483   2.377       .  S
Zr475       O484   2.380       .  S
Zr476       O495   2.435       .  S
Zr476       O488   2.434       .  S
Zr476       O489   2.431       .  S
Zr476       O482   2.392       .  S
Zr476       O483   2.394       .  S
Zr477       O479   2.437       .  S
Zr477       O501   2.438       .  S
Zr477       O503   2.426       .  S
Zr477       O481   2.383       .  S
Zr477       O484   2.391       .  S
Zr478       O504   2.436       .  S
Zr478       O505   2.437       .  S
Zr478       O480   2.435       .  S
Zr478       O481   2.388       .  S
Zr478       O482   2.402       .  S
O479        H516   0.990       .  S
O480        H511   0.990       .  S
O480        H525   0.990       .  S
O482        H508   0.966       .  S
O483       Zr493   2.378       .  S
O484       Zr493   2.390       .  S
O484        H509   0.966       .  S
C485       C1045   1.482       .  S
C486        C989   1.486       .  S
C487       C1185   1.488       .  S
O488        H524   0.990       .  S
O489        C491   1.284       .  A
O490        C491   1.279       .  A
C491        C961   1.485       .  S
O492       Zr493   2.439       .  S
O492        H521   0.990       .  S
Zr493       O496   2.438       .  S
Zr493       O497   2.439       .  S
Zr493       O498   2.409       .  S
O494        C499   1.285       .  A
O495        H512   0.990       .  S
O495        H527   0.990       .  S
O496        H513   0.990       .  S
O497        H517   0.990       .  S
O497        H526   0.990       .  S
O498        C499   1.279       .  A
C499       C1017   1.470       .  S
O500        H519   0.990       .  S
O500        H523   0.990       .  S
O501        H515   0.990       .  S
O501        H522   0.990       .  S
O502        C506   1.283       .  A
O503        C506   1.284       .  A
O504        H514   0.990       .  S
O505        H518   0.990       .  S
C506       C1310   1.482       .  S
Zr529       O530   2.440       .  S
Zr529       O531   2.427       .  S
Zr529       O532   2.455       .  S
Zr529       O535   2.425       .  S
Zr529       O537   2.376       .  S
Zr529       O538   2.387       .  S
Zr529       O539   2.400       .  S
Zr529       O540   2.404       .  S
O530        H586   0.990       .  S
O530        H594   0.990       .  S
O531        C551   1.284       .  A
O532        C553   1.288       .  A
O533       Zr543   2.421       .  S
O533        C552   1.283       .  A
O534       Zr542   2.427       .  S
O534        C553   1.284       .  A
O535        C552   1.284       .  A
O536       Zr544   2.425       .  S
O536        C551   1.282       .  A
O537       Zr542   2.391       .  S
O537       Zr544   2.371       .  S
O538       Zr543   2.397       .  S
O538       Zr544   2.379       .  S
O538        H573   0.966       .  S
O539       Zr542   2.396       .  S
O539       Zr559   2.399       .  S
O539        H576   0.966       .  S
O540       Zr543   2.394       .  S
O540       Zr559   2.388       .  S
Zr541       O566   2.442       .  S
Zr541       O560   2.434       .  S
Zr541       O568   2.441       .  S
Zr541       O556   2.415       .  S
Zr541       O547   2.387       .  S
Zr541       O548   2.412       .  S
Zr541       O549   2.380       .  S
Zr541       O550   2.381       .  S
Zr542       O561   2.436       .  S
Zr542       O554   2.434       .  S
Zr542       O555   2.421       .  S
Zr542       O548   2.401       .  S
Zr542       O549   2.387       .  S
Zr543       O545   2.438       .  S
Zr543       O567   2.437       .  S
Zr543       O569   2.440       .  S
Zr543       O547   2.384       .  S
Zr543       O550   2.384       .  S
Zr544       O570   2.435       .  S
Zr544       O571   2.436       .  S
Zr544       O546   2.437       .  S
Zr544       O547   2.390       .  S
Zr544       O548   2.402       .  S
O545        H582   0.990       .  S
O546        H577   0.990       .  S
O546        H591   0.990       .  S
O548        H574   0.966       .  S
O549       Zr559   2.375       .  S
O550       Zr559   2.393       .  S
O550        H575   0.966       .  S
C551        C905   1.485   1_455  S
C552       C1157   1.476       .  S
C553        C890   1.489       .  S
O554        H590   0.990       .  S
O555        C557   1.282       .  A
O556        C557   1.279       .  A
C557       C1129   1.467       .  S
O558       Zr559   2.441       .  S
O558        H587   0.990       .  S
Zr559       O562   2.439       .  S
Zr559       O563   2.438       .  S
Zr559       O564   2.416       .  S
O560        C565   1.284       .  A
O561        H578   0.990       .  S
O561        H593   0.990       .  S
O562        H579   0.990       .  S
O563        H583   0.990       .  S
O563        H592   0.990       .  S
O564        C565   1.281       .  A
C565        C933   1.482       .  S
O566        H585   0.990       .  S
O566        H589   0.990       .  S
O567        H581   0.990       .  S
O567        H588   0.990       .  S
O568        C572   1.286       .  A
O569        C572   1.286       .  A
O570        H580   0.990       .  S
O571        H584   0.990       .  S
C572       C1478   1.490       .  S
Zr595       O596   2.438       .  S
Zr595       O597   2.419       .  S
Zr595       O598   2.437       .  S
Zr595       O601   2.432       .  S
Zr595       O603   2.382       .  S
Zr595       O604   2.384       .  S
Zr595       O605   2.401       .  S
Zr595       O606   2.390       .  S
O596        H652   0.990       .  S
O596        H660   0.990       .  S
O597        C617   1.281       .  A
O598        C619   1.285       .  A
O599       Zr609   2.417       .  S
O599        C618   1.282       .  A
O600       Zr608   2.428       .  S
O600        C619   1.285       .  A
O601        C618   1.285       .  A
O602       Zr610   2.430       .  S
O602        C617   1.283       .  A
O603       Zr608   2.397       .  S
O603       Zr610   2.370       .  S
O604       Zr609   2.392       .  S
O604       Zr610   2.376       .  S
O604        H639   0.966       .  S
O605       Zr608   2.401       .  S
O605       Zr625   2.393       .  S
O605        H642   0.965       .  S
O606       Zr609   2.389       .  S
O606       Zr625   2.377       .  S
Zr607       O632   2.442       .  S
Zr607       O626   2.446       .  S
Zr607       O634   2.430       .  S
Zr607       O622   2.423       .  S
Zr607       O613   2.394       .  S
Zr607       O614   2.417       .  S
Zr607       O615   2.377       .  S
Zr607       O616   2.380       .  S
Zr608       O627   2.436       .  S
Zr608       O620   2.434       .  S
Zr608       O621   2.442       .  S
Zr608       O614   2.398       .  S
Zr608       O615   2.391       .  S
Zr609       O611   2.436       .  S
Zr609       O633   2.440       .  S
Zr609       O635   2.430       .  S
Zr609       O613   2.379       .  S
Zr609       O616   2.390       .  S
Zr610       O636   2.434       .  S
Zr610       O637   2.434       .  S
Zr610       O612   2.435       .  S
Zr610       O613   2.387       .  S
Zr610       O614   2.404       .  S
O611        H648   0.990       .  S
O612        H643   0.990   1_655  S
O612        H657   0.990       .  S
O614        H640   0.965       .  S
O615       Zr625   2.383       .  S
O616       Zr625   2.391       .  S
O616        H641   0.965       .  S
C617       C1002   1.476   1_655  S
C618        C821   1.471       .  S
C619        C877   1.488       .  S
O620        H656   0.990       .  S
O621        C623   1.286       .  A
O622        C623   1.280       .  A
C623        C849   1.486       .  S
O624       Zr625   2.438       .  S
O624        H653   0.990       .  S
Zr625       O628   2.437       .  S
Zr625       O629   2.439       .  S
Zr625       O630   2.394       .  S
O626        C631   1.284       .  A
O627        H644   0.990       .  S
O627        H659   0.990       .  S
O628        H645   0.990       .  S
O629        H649   0.990       .  S
O629        H658   0.990       .  S
O630        C631   1.277       .  A
C631        C974   1.476       .  S
O632        H651   0.990       .  S
O632        H655   0.990       .  S
O633        H647   0.990       .  S
O633        H654   0.990       .  S
O634        C638   1.284       .  A
O635        C638   1.284       .  A
O636        H646   0.990       .  S
O637        H650   0.990       .  S
C638       C1506   1.490       .  S
Zr661       O662   2.440       .  S
Zr661       O663   2.429       .  S
Zr661       O664   2.443       .  S
Zr661       O667   2.429       .  S
Zr661       O669   2.375       .  S
Zr661       O670   2.387       .  S
Zr661       O671   2.405       .  S
Zr661       O672   2.395       .  S
O662        H718   0.990       .  S
O662        H726   0.990       .  S
O663        C683   1.283       .  A
O664        C685   1.287       .  A
O665       Zr675   2.425       .  S
O665        C684   1.283       .  A
O666       Zr674   2.431       .  S
O666        C685   1.285       .  A
O667        C684   1.284       .  A
O668       Zr676   2.423       .  S
O668        C683   1.282       .  A
O669       Zr674   2.396       .  S
O669       Zr676   2.370       .  S
O670       Zr675   2.394       .  S
O670       Zr676   2.377       .  S
O670        H705   0.965       .  S
O671       Zr674   2.404       .  S
O671       Zr691   2.399       .  S
O671        H708   0.967       .  S
O672       Zr675   2.393       .  S
O672       Zr691   2.379       .  S
Zr673       O698   2.443       .  S
Zr673       O692   2.442       .  S
Zr673       O700   2.436       .  S
Zr673       O688   2.418       .  S
Zr673       O679   2.395       .  S
Zr673       O680   2.411       .  S
Zr673       O681   2.378       .  S
Zr673       O682   2.379       .  S
Zr674       O693   2.436       .  S
Zr674       O686   2.434       .  S
Zr674       O687   2.447       .  S
Zr674       O680   2.395       .  S
Zr674       O681   2.388       .  S
Zr675       O677   2.437       .  S
Zr675       O699   2.438       .  S
Zr675       O701   2.434       .  S
Zr675       O679   2.388       .  S
Zr675       O682   2.392       .  S
Zr676       O702   2.435       .  S
Zr676       O703   2.433       .  S
Zr676       O678   2.436       .  S
Zr676       O679   2.390       .  S
Zr676       O680   2.397       .  S
O677        H714   0.990       .  S
O678        H709   0.990       .  S
O678        H723   0.990       .  S
O680        H706   0.966       .  S
O681       Zr691   2.382       .  S
O682       Zr691   2.393       .  S
O682        H707   0.966       .  S
C683       C1086   1.480   1_565  S
C684        C918   1.468       .  S
C685        C793   1.487       .  S
O686        H722   0.990       .  S
O687        C689   1.287       .  A
O688        C689   1.280       .  A
C689        C946   1.486       .  S
O690       Zr691   2.439       .  S
O690        H719   0.990       .  S
Zr691       O694   2.437       .  S
Zr691       O695   2.440       .  S
Zr691       O696   2.398       .  S
O692        C697   1.284       .  A
O693        H710   0.990       .  S
O693        H725   0.990       .  S
O694        H711   0.990       .  S
O695        H715   0.989       .  S
O695        H724   0.991       .  S
O696        C697   1.279       .  A
C697       C1114   1.484       .  S
O698        H717   0.990       .  S
O698        H721   0.990       .  S
O699        H713   0.990       .  S
O699        H720   0.990       .  S
O700        C704   1.283       .  A
O701        C704   1.284       .  A
O702        H712   0.990       .  S
O703        H716   0.990       .  S
C704       C1646   1.483       .  S
Zr727       O728   2.440       .  S
Zr727       O729   2.421       .  S
Zr727       O730   2.432       .  S
Zr727       O733   2.430       .  S
Zr727       O735   2.379       .  S
Zr727       O736   2.383       .  S
Zr727       O737   2.403       .  S
Zr727       O738   2.393       .  S
O728        H784   0.990       .  S
O728        H792   0.991       .  S
O729        C749   1.282       .  A
O730        C751   1.285       .  A
O731       Zr741   2.429       .  S
O731        C750   1.284       .  A
O732       Zr740   2.433       .  S
O732        C751   1.285       .  A
O733        C750   1.285       .  A
O734       Zr742   2.436       .  S
O734        C749   1.285       .  A
O735       Zr740   2.392       .  S
O735       Zr742   2.364       .  S
O736       Zr741   2.385       .  S
O736       Zr742   2.378       .  S
O736        H771   0.965       .  S
O737       Zr740   2.401       .  S
O737       Zr757   2.396       .  S
O737        H774   0.966       .  S
O738       Zr741   2.388       .  S
O738       Zr757   2.380       .  S
Zr739       O764   2.442       .  S
Zr739       O758   2.445       .  S
Zr739       O766   2.435       .  S
Zr739       O754   2.423       .  S
Zr739       O745   2.397       .  S
Zr739       O746   2.419       .  S
Zr739       O747   2.378       .  S
Zr739       O748   2.381       .  S
Zr740       O759   2.435       .  S
Zr740       O752   2.434       .  S
Zr740       O753   2.443       .  S
Zr740       O746   2.401       .  S
Zr740       O747   2.390       .  S
Zr741       O743   2.435       .  S
Zr741       O765   2.439       .  S
Zr741       O767   2.427       .  S
Zr741       O745   2.385       .  S
Zr741       O748   2.390       .  S
Zr742       O768   2.433       .  S
Zr742       O769   2.434       .  S
Zr742       O744   2.437       .  S
Zr742       O745   2.391       .  S
Zr742       O746   2.412       .  S
O743        H780   0.990       .  S
O744        H775   0.991   1_545  S
O744        H789   0.990       .  S
O746        H772   0.966       .  S
O747       Zr757   2.378       .  S
O748       Zr757   2.392       .  S
O748        H773   0.965       .  S
C749        C834   1.487   1_545  S
C750       C1058   1.476       .  S
C751        C806   1.484       .  S
O752        H788   0.990       .  S
O753        C755   1.287       .  A
O754        C755   1.281       .  A
C755       C1030   1.490       .  S
O756       Zr757   2.440       .  S
O756        H785   0.990       .  S
Zr757       O760   2.436       .  S
Zr757       O761   2.441       .  S
Zr757       O762   2.399       .  S
O758        C763   1.286       .  A
O759        H776   0.990       .  S
O759        H791   0.990       .  S
O760        H777   0.990       .  S
O761        H781   0.990       .  S
O761        H790   0.990       .  S
O762        C763   1.278       .  A
C763        C862   1.485       .  S
O764        H783   0.991       .  S
O764        H787   0.990       .  S
O765        H779   0.990       .  S
O765        H786   0.990       .  S
O766        C770   1.283       .  A
O767        C770   1.283       .  A
O768        H778   0.990       .  S
O769        H782   0.990       .  S
C770       C1213   1.473       .  S
C793        C794   1.416       .  A
C793        C798   1.406       .  A
C794        C795   1.408       .  A
C794        N799   1.437       .  S
C795        C796   1.401       .  A
C795        H800   1.084   1_554  S
C796        C801   1.480   1_554  S
C796        C797   1.407       .  A
C797        C798   1.406       .  A
C797        N802   1.438   1_565  S
C798        H803   1.081       .  S
N799        H819   1.046       .  S
N799        H820   1.046       .  S
C801        C804   1.403   1_565  A
C801        C808   1.407       .  A
N802        H817   1.046       .  S
N802        H818   1.045       .  S
C804        C805   1.409       .  A
C804        H809   1.084   1_556  S
C805        C806   1.414       .  A
C805        N810   1.438       .  S
C806        C807   1.405       .  A
C807        C808   1.403   1_545  A
C807        H811   1.082       .  S
C808        N812   1.438       .  S
N810        H813   1.046       .  S
N810        H814   1.046       .  S
N812        H815   1.046       .  S
N812        H816   1.045       .  S
C821        C822   1.409       .  A
C821        C826   1.401       .  A
C822        C823   1.399       .  A
C822        N827   1.433       .  S
C823        C824   1.402       .  A
C823        H828   1.084       .  S
C824        C829   1.483       .  S
C824        C825   1.414       .  A
C825        C826   1.404       .  A
C825        N830   1.438       .  S
C826        H831   1.084       .  S
N827        H847   1.046       .  S
N827        H848   1.046       .  S
C829        C832   1.401       .  A
C829        C836   1.411       .  A
N830        H845   1.046       .  S
N830        H846   1.046       .  S
C832        C833   1.403       .  A
C832        H837   1.084       .  S
C833        C834   1.417       .  A
C833        N838   1.437       .  S
C834        C835   1.407       .  A
C835        C836   1.403       .  A
C835        H839   1.083       .  S
C836        N840   1.438       .  S
N838        H841   1.046       .  S
N838        H842   1.044       .  S
N840        H843   1.046       .  S
N840        H844   1.045       .  S
C849        C850   1.418       .  A
C849        C854   1.404       .  A
C850        C851   1.404       .  A
C850        N855   1.438       .  S
C851        C852   1.398       .  A
C851        H856   1.084       .  S
C852        C857   1.480       .  S
C852        C853   1.410       .  A
C853        C854   1.406       .  A
C853        N858   1.438       .  S
C854        H859   1.083       .  S
N855        H875   1.046       .  S
N855        H876   1.046       .  S
C857        C860   1.398       .  A
C857        C864   1.410       .  A
N858        H873   1.046       .  S
N858        H874   1.046       .  S
C860        C861   1.399       .  A
C860        H865   1.084       .  S
C861        C862   1.416       .  A
C861        N866   1.433       .  S
C862        C863   1.406       .  A
C863        C864   1.407       .  A
C863        H867   1.083       .  S
C864        N868   1.437       .  S
N866        H869   1.046       .  S
N866        H870   1.046       .  S
N868        H871   1.046       .  S
N868        H872   1.046       .  S
C877        C878   1.415       .  A
C877        C882   1.406       .  A
C878        C879   1.407       .  A
C878        N883   1.437       .  S
C879        C880   1.403       .  A
C879        H884   1.084       .  S
C880        C885   1.491   1_656  S
C880        C881   1.412       .  A
C881        C882   1.406       .  A
C881        N886   1.438   1_655  S
C882        H887   1.084       .  S
N883        H903   1.046       .  S
N883        H904   1.046       .  S
C885        C888   1.402       .  A
C885        C892   1.412       .  A
N886        H901   1.046       .  S
N886        H902   1.045       .  S
C888        C889   1.407       .  A
C888        H893   1.084   1_455  S
C889        C890   1.416       .  A
C889        N894   1.438       .  S
C890        C891   1.406       .  A
C891        C892   1.410       .  A
C891        H895   1.084       .  S
C892        N896   1.438   1_554  S
N894        H897   1.046       .  S
N894        H898   1.046       .  S
N896        H899   1.046       .  S
N896        H900   1.046       .  S
C905        C906   1.417       .  A
C905        C910   1.406       .  A
C906        C907   1.407       .  A
C906        N911   1.438       .  S
C907        C908   1.400       .  A
C907        H912   1.084       .  S
C908        C913   1.473       .  S
C908        C909   1.404       .  A
C909        C910   1.400       .  A
C909        N914   1.438       .  S
C910        H915   1.081   1_655  S
N911        H931   1.046       .  S
N911        H932   1.046       .  S
C913        C916   1.401       .  A
C913        C920   1.407       .  A
N914        H929   1.045       .  S
N914        H930   1.045       .  S
C916        C917   1.404       .  A
C916        H921   1.084       .  S
C917        C918   1.410       .  A
C917        N922   1.438       .  S
C918        C919   1.403       .  A
C919        C920   1.404       .  A
C919        H923   1.084       .  S
C920        N924   1.438       .  S
N922        H925   1.046       .  S
N922        H926   1.044       .  S
N924        H927   1.046       .  S
N924        H928   1.045       .  S
C933        C934   1.416       .  A
C933        C938   1.406       .  A
C934        C935   1.404       .  A
C934        N939   1.438       .  S
C935        C936   1.399       .  A
C935        H940   1.084       .  S
C936        C941   1.477       .  S
C936        C937   1.407       .  A
C937        C938   1.404       .  A
C937        N942   1.438       .  S
C938        H943   1.082       .  S
N939        H959   1.046       .  S
N939        H960   1.046       .  S
C941        C944   1.398       .  A
C941        C948   1.407       .  A
N942        H957   1.046       .  S
N942        H958   1.046       .  S
C944        C945   1.405       .  A
C944        H949   1.084       .  S
C945        C946   1.420       .  A
C945        N950   1.438       .  S
C946        C947   1.405       .  A
C947        C948   1.405       .  A
C947        H951   1.083       .  S
C948        N952   1.437       .  S
N950        H953   1.046       .  S
N950        H954   1.046       .  S
N952        H955   1.046       .  S
N952        H956   1.046       .  S
C961        C962   1.416       .  A
C961        C966   1.410       .  A
C962        C963   1.404       .  A
C962        N967   1.438       .  S
C963        C964   1.402       .  A
C963        H968   1.084       .  S
C964        C969   1.476       .  S
C964        C965   1.404       .  A
C965        C966   1.399       .  A
C965        N970   1.438       .  S
C966        H971   1.082       .  S
N967        H987   1.045       .  S
N967        H988   1.046       .  S
C969        C972   1.403       .  A
C969        C976   1.406       .  A
N970        H985   1.046       .  S
N970        H986   1.045       .  S
C972        C973   1.406       .  A
C972        H977   1.084       .  S
C973        C974   1.413       .  A
C973        N978   1.438       .  S
C974        C975   1.406       .  A
C975        C976   1.400       .  A
C975        H979   1.084       .  S
C976        N980   1.438       .  S
N978        H981   1.046       .  S
N978        H982   1.045       .  S
N980        H983   1.046       .  S
N980        H984   1.046       .  S
C989        C990   1.415   1_545  A
C989        C994   1.407   1_545  A
C990        C991   1.406       .  A
C990        N995   1.436   1_565  S
C991        C992   1.402       .  A
C991        H996   1.084       .  S
C992        C997   1.482       .  S
C992        C993   1.409       .  A
C993        C994   1.402       .  A
C993        N998   1.438       .  S
C994        H999   1.084       .  S
N995       H1015   1.044       .  S
N995       H1016   1.046       .  S
C997       C1000   1.402       .  A
C997       C1004   1.410       .  A
N998       H1013   1.046       .  S
N998       H1014   1.045       .  S
C1000      C1001   1.403       .  A
C1000      H1005   1.084       .  S
C1001      C1002   1.412       .  A
C1001      N1006   1.438       .  S
C1002      C1003   1.405       .  A
C1003      C1004   1.405       .  A
C1003      H1007   1.084       .  S
C1004      N1008   1.438       .  S
N1006      H1009   1.046       .  S
N1006      H1010   1.045       .  S
N1008      H1011   1.046       .  S
N1008      H1012   1.046       .  S
C1017      C1018   1.406       .  A
C1017      C1022   1.401       .  A
C1018      C1019   1.401       .  A
C1018      N1023   1.432       .  S
C1019      C1020   1.405       .  A
C1019      H1024   1.084       .  S
C1020      C1025   1.489       .  S
C1020      C1021   1.415       .  A
C1021      C1022   1.407       .  A
C1021      N1026   1.438       .  S
C1022      H1027   1.084       .  S
N1023      H1043   1.046       .  S
N1023      H1044   1.046       .  S
C1025      C1028   1.401       .  A
C1025      C1032   1.412       .  A
N1026      H1041   1.046       .  S
N1026      H1042   1.046       .  S
C1028      C1029   1.405       .  A
C1028      H1033   1.084       .  S
C1029      C1030   1.419       .  A
C1029      N1034   1.438       .  S
C1030      C1031   1.405       .  A
C1031      C1032   1.406       .  A
C1031      H1035   1.083       .  S
C1032      N1036   1.438       .  S
N1034      H1037   1.046       .  S
N1034      H1038   1.046       .  S
N1036      H1039   1.046       .  S
N1036      H1040   1.046       .  S
C1045      C1046   1.413       .  A
C1045      C1050   1.405       .  A
C1046      C1047   1.407       .  A
C1046      N1051   1.438       .  S
C1047      C1048   1.402       .  A
C1047      H1052   1.084       .  S
C1048      C1053   1.475       .  S
C1048      C1049   1.405       .  A
C1049      C1050   1.402       .  A
C1049      N1054   1.438       .  S
C1050      H1055   1.080       .  S
N1051      H1071   1.046       .  S
N1051      H1072   1.046       .  S
C1053      C1056   1.401       .  A
C1053      C1060   1.407       .  A
N1054      H1069   1.046       .  S
N1054      H1070   1.045       .  S
C1056      C1057   1.406   1_455  A
C1056      H1061   1.084       .  S
C1057      C1058   1.412       .  A
C1057      N1062   1.438       .  S
C1058      C1059   1.404       .  A
C1059      C1060   1.403   1_655  A
C1059      H1063   1.084       .  S
C1060      N1064   1.438       .  S
N1062      H1065   1.046       .  S
N1062      H1066   1.046       .  S
N1064      H1067   1.046       .  S
N1064      H1068   1.045       .  S
C1073      C1074   1.414   1_455  A
C1073      C1078   1.405       .  A
C1074      C1075   1.403       .  A
C1074      N1079   1.438       .  S
C1075      C1076   1.402       .  A
C1075      H1080   1.084       .  S
C1076      C1081   1.483       .  S
C1076      C1077   1.411       .  A
C1077      C1078   1.404   1_655  A
C1077      N1082   1.438       .  S
C1078      H1083   1.084       .  S
N1079      H1099   1.046       .  S
N1079      H1100   1.046       .  S
C1081      C1084   1.403       .  A
C1081      C1088   1.411       .  A
N1082      H1097   1.046   1_655  S
N1082      H1098   1.046       .  S
C1084      C1085   1.404       .  A
C1084      H1089   1.084       .  S
C1085      C1086   1.413       .  A
C1085      N1090   1.437   1_545  S
C1086      C1087   1.405       .  A
C1087      C1088   1.403       .  A
C1087      H1091   1.084       .  S
C1088      N1092   1.438       .  S
N1090      H1093   1.046   1_565  S
N1090      H1094   1.045   1_565  S
N1092      H1095   1.046       .  S
N1092      H1096   1.046       .  S
C1101      C1102   1.416       .  A
C1101      C1106   1.410       .  A
C1102      C1103   1.405       .  A
C1102      N1107   1.438       .  S
C1103      C1104   1.402       .  A
C1103      H1108   1.084       .  S
C1104      C1109   1.480       .  S
C1104      C1105   1.406       .  A
C1105      C1106   1.403       .  A
C1105      N1110   1.438       .  S
C1106      H1111   1.083       .  S
N1107      H1127   1.045       .  S
N1107      H1128   1.046       .  S
C1109      C1112   1.402       .  A
C1109      C1116   1.406       .  A
N1110      H1125   1.046       .  S
N1110      H1126   1.046       .  S
C1112      C1113   1.406       .  A
C1112      H1117   1.084       .  S
C1113      C1114   1.416       .  A
C1113      N1118   1.438       .  S
C1114      C1115   1.408       .  A
C1115      C1116   1.401       .  A
C1115      H1119   1.084       .  S
C1116      N1120   1.438       .  S
N1118      H1121   1.046       .  S
N1118      H1122   1.045       .  S
N1120      H1123   1.046       .  S
N1120      H1124   1.046       .  S
C1129      C1130   1.412       .  A
C1129      C1134   1.402       .  A
C1130      C1131   1.400       .  A
C1130      N1135   1.438       .  S
C1131      C1132   1.397       .  A
C1131      H1136   1.084       .  S
C1132      C1137   1.469       .  S
C1132      C1133   1.409       .  A
C1133      C1134   1.403       .  A
C1133      N1138   1.438       .  S
C1134      H1139   1.084       .  S
N1135      H1155   1.046       .  S
N1135      H1156   1.046       .  S
C1137      C1140   1.401       .  A
C1137      C1144   1.405       .  A
N1138      H1153   1.046       .  S
N1138      H1154   1.046       .  S
C1140      C1141   1.405       .  A
C1140      H1145   1.084       .  S
C1141      C1142   1.410       .  A
C1141      N1146   1.437       .  S
C1142      C1143   1.404       .  A
C1143      C1144   1.400       .  A
C1143      H1147   1.084       .  S
C1144      N1148   1.438       .  S
N1146      H1149   1.046       .  S
N1146      H1150   1.046       .  S
N1148      H1151   1.046       .  S
N1148      H1152   1.046       .  S
C1157      C1158   1.412       .  A
C1157      C1162   1.404   1_565  A
C1158      C1159   1.404   1_565  A
C1158      N1163   1.437       .  S
C1159      C1160   1.402       .  A
C1159      H1164   1.084       .  S
C1160      C1165   1.479       .  S
C1160      C1161   1.409       .  A
C1161      C1162   1.401       .  A
C1161      N1166   1.438       .  S
C1162      H1167   1.084   1_545  S
N1163      H1183   1.045       .  S
N1163      H1184   1.045       .  S
C1165      C1168   1.402       .  A
C1165      C1172   1.408       .  A
N1166      H1181   1.046       .  S
N1166      H1182   1.046       .  S
C1168      C1169   1.403       .  A
C1168      H1173   1.084       .  S
C1169      C1170   1.415       .  A
C1169      N1174   1.438       .  S
C1170      C1171   1.406       .  A
C1171      C1172   1.402       .  A
C1171      H1175   1.084       .  S
C1172      N1176   1.438       .  S
N1174      H1177   1.046       .  S
N1174      H1178   1.046       .  S
N1176      H1179   1.046       .  S
N1176      H1180   1.046       .  S
C1185      C1186   1.415       .  A
C1185      C1190   1.404       .  A
C1186      C1187   1.410       .  A
C1186      N1191   1.438       .  S
C1187      C1188   1.406       .  A
C1187      H1192   1.084       .  S
C1188      C1193   1.496   1_556  S
C1188      C1189   1.412       .  A
C1189      C1190   1.409       .  A
C1189      N1194   1.437   1_556  S
C1190      H1195   1.084       .  S
N1191      H1211   1.046       .  S
N1191      H1212   1.046       .  S
C1193      C1196   1.404       .  A
C1193      C1200   1.410       .  A
N1194      H1209   1.046   1_554  S
N1194      H1210   1.046       .  S
C1196      C1197   1.411       .  A
C1196      H1201   1.084       .  S
C1197      C1198   1.421       .  A
C1197      N1202   1.437       .  S
C1198      C1199   1.411       .  A
C1199      C1200   1.408       .  A
C1199      H1203   1.083       .  S
C1200      N1204   1.438       .  S
N1202      H1205   1.046       .  S
N1202      H1206   1.046       .  S
N1204      H1207   1.046       .  S
N1204      H1208   1.046       .  S
C1213      C1214   1.410       .  A
C1213      C1218   1.403       .  A
C1214      C1215   1.401       .  A
C1214      N1219   1.438       .  S
C1215      C1216   1.402       .  A
C1215      H1220   1.084       .  S
C1216      C1221   1.485       .  S
C1216      C1217   1.412       .  A
C1217      C1218   1.410       .  A
C1217      N1222   1.437       .  S
C1218      H1223   1.084       .  S
N1219      H1239   1.046       .  S
N1219      H1240   1.046       .  S
C1221      C1224   1.405       .  A
C1221      C1228   1.409       .  A
N1222      H1237   1.046       .  S
N1222      H1238   1.046       .  S
C1224      C1225   1.410       .  A
C1224      H1229   1.084       .  S
C1225      C1226   1.413       .  A
C1225      N1230   1.437       .  S
C1226      C1227   1.405       .  A
C1227      C1228   1.402       .  A
C1227      H1231   1.084       .  S
C1228      N1232   1.438       .  S
N1230      H1233   1.046       .  S
N1230      H1234   1.046       .  S
N1232      H1235   1.046       .  S
N1232      H1236   1.046       .  S
C1241      C1242   1.417       .  A
C1241      C1246   1.407       .  A
C1242      C1243   1.405       .  A
C1242      N1247   1.438       .  S
C1243      C1244   1.401       .  A
C1243      H1248   1.084   1_455  S
C1244      C1249   1.482   1_455  S
C1244      C1245   1.408       .  A
C1245      C1246   1.404       .  A
C1245      N1250   1.438       .  S
C1246      H1251   1.084       .  S
N1247      H1267   1.045       .  S
N1247      H1268   1.046       .  S
C1249      C1252   1.403       .  A
C1249      C1256   1.410       .  A
N1250      H1265   1.046       .  S
N1250      H1266   1.046       .  S
C1252      C1253   1.406       .  A
C1252      H1257   1.084       .  S
C1253      C1254   1.412       .  A
C1253      N1258   1.438       .  S
C1254      C1255   1.404       .  A
C1255      C1256   1.404       .  A
C1255      H1259   1.084       .  S
C1256      N1260   1.438   1_655  S
N1258      H1261   1.046       .  S
N1258      H1262   1.046       .  S
N1260      H1263   1.046       .  S
N1260      H1264   1.046       .  S
C1269      C1270   1.417       .  A
C1269      C1274   1.408       .  A
C1270      C1271   1.407       .  A
C1270      N1275   1.438       .  S
C1271      C1272   1.402       .  A
C1271      H1276   1.084       .  S
C1272      C1277   1.480       .  S
C1272      C1273   1.407       .  A
C1273      C1274   1.403       .  A
C1273      N1278   1.438       .  S
C1274      H1279   1.083       .  S
N1275      H1295   1.046       .  S
N1275      H1296   1.046       .  S
C1277      C1280   1.402       .  A
C1277      C1284   1.406       .  A
N1278      H1293   1.046       .  S
N1278      H1294   1.046       .  S
C1280      C1281   1.406       .  A
C1280      H1285   1.084       .  S
C1281      C1282   1.415       .  A
C1281      N1286   1.438       .  S
C1282      C1283   1.408       .  A
C1283      C1284   1.402       .  A
C1283      H1287   1.083       .  S
C1284      N1288   1.438       .  S
N1286      H1289   1.046       .  S
N1286      H1290   1.046       .  S
N1288      H1291   1.046       .  S
N1288      H1292   1.046       .  S
C1297      C1298   1.408       .  A
C1297      C1302   1.403       .  A
C1298      C1299   1.403       .  A
C1298      N1303   1.438       .  S
C1299      C1300   1.405       .  A
C1299      H1304   1.083       .  S
C1300      C1305   1.494       .  S
C1300      C1301   1.416       .  A
C1301      C1302   1.411       .  A
C1301      N1306   1.438       .  S
C1302      H1307   1.084       .  S
N1303      H1323   1.046       .  S
N1303      H1324   1.046       .  S
C1305      C1308   1.407       .  A
C1305      C1312   1.414       .  A
N1306      H1321   1.046       .  S
N1306      H1322   1.046       .  S
C1308      C1309   1.410       .  A
C1308      H1313   1.083       .  S
C1309      C1310   1.413       .  A
C1309      N1314   1.437       .  S
C1310      C1311   1.403       .  A
C1311      C1312   1.401       .  A
C1311      H1315   1.084       .  S
C1312      N1316   1.439       .  S
N1314      H1317   1.046       .  S
N1314      H1318   1.045       .  S
N1316      H1319   1.046       .  S
N1316      H1320   1.046       .  S
C1325      C1326   1.419       .  A
C1325      C1330   1.405       .  A
C1326      C1327   1.406       .  A
C1326      N1331   1.437       .  S
C1327      C1328   1.400       .  A
C1327      H1332   1.084       .  S
C1328      C1333   1.486       .  S
C1328      C1329   1.411       .  A
C1329      C1330   1.406       .  A
C1329      N1334   1.438       .  S
C1330      H1335   1.083       .  S
N1331      H1351   1.046       .  S
N1331      H1352   1.046       .  S
C1333      C1336   1.399       .  A
C1333      C1340   1.411       .  A
N1334      H1349   1.046       .  S
N1334      H1350   1.045       .  S
C1336      C1337   1.402       .  A
C1336      H1341   1.084       .  S
C1337      C1338   1.419       .  A
C1337      N1342   1.438       .  S
C1338      C1339   1.406       .  A
C1339      C1340   1.408       .  A
C1339      H1343   1.082       .  S
C1340      N1344   1.438       .  S
N1342      H1345   1.046       .  S
N1342      H1346   1.045       .  S
N1344      H1347   1.046       .  S
N1344      H1348   1.046       .  S
C1353      C1354   1.410       .  A
C1353      C1358   1.407       .  A
C1354      C1355   1.402       .  A
C1354      N1359   1.432       .  S
C1355      C1356   1.400       .  A
C1355      H1360   1.084       .  S
C1356      C1361   1.478       .  S
C1356      C1357   1.408       .  A
C1357      C1358   1.408       .  A
C1357      N1362   1.438       .  S
C1358      H1363   1.084       .  S
N1359      H1379   1.046       .  S
N1359      H1380   1.045       .  S
C1361      C1364   1.402       .  A
C1361      C1368   1.406       .  A
N1362      H1377   1.046       .  S
N1362      H1378   1.045       .  S
C1364      C1365   1.409       .  A
C1364      H1369   1.084       .  S
C1365      C1366   1.414       .  A
C1365      N1370   1.437       .  S
C1366      C1367   1.408       .  A
C1367      C1368   1.403       .  A
C1367      H1371   1.084   1_455  S
C1368      N1372   1.438       .  S
N1370      H1373   1.046       .  S
N1370      H1374   1.046       .  S
N1372      H1375   1.046       .  S
N1372      H1376   1.045       .  S
C1381      C1382   1.412       .  A
C1381      C1386   1.407       .  A
C1382      C1383   1.407       .  A
C1382      N1387   1.437       .  S
C1383      C1384   1.405       .  A
C1383      H1388   1.083       .  S
C1384      C1389   1.493   1_565  S
C1384      C1385   1.412       .  A
C1385      C1386   1.407       .  A
C1385      N1390   1.438   1_565  S
C1386      H1391   1.084       .  S
N1387      H1407   1.046       .  S
N1387      H1408   1.046       .  S
C1389      C1392   1.405       .  A
C1389      C1396   1.412       .  A
N1390      H1405   1.046       .  S
N1390      H1406   1.046       .  S
C1392      C1393   1.408       .  A
C1392      H1397   1.083   1_545  S
C1393      C1394   1.415       .  A
C1393      N1398   1.438       .  S
C1394      C1395   1.406       .  A
C1395      C1396   1.405       .  A
C1395      H1399   1.083       .  S
C1396      N1400   1.438       .  S
N1398      H1401   1.046       .  S
N1398      H1402   1.046       .  S
N1400      H1403   1.046       .  S
N1400      H1404   1.045       .  S
C1409      C1410   1.413       .  A
C1409      C1414   1.407       .  A
C1410      C1411   1.403       .  A
C1410      N1415   1.438       .  S
C1411      C1412   1.401       .  A
C1411      H1416   1.084       .  S
C1412      C1417   1.467       .  S
C1412      C1413   1.411       .  A
C1413      C1414   1.393       .  A
C1413      N1418   1.440       .  S
C1414      H1419   1.084   1_545  S
N1415      H1435   1.046       .  S
N1415      H1436   1.046       .  S
C1417      C1420   1.397       .  A
C1417      C1424   1.407       .  A
N1418      H1433   1.046       .  S
N1418      H1434   1.043       .  S
C1420      C1421   1.400       .  A
C1420      H1425   1.084       .  S
C1421      C1422   1.413       .  A
C1421      N1426   1.438       .  S
C1422      C1423   1.404       .  A
C1423      C1424   1.403       .  A
C1423      H1427   1.084       .  S
C1424      N1428   1.438       .  S
N1426      H1429   1.046       .  S
N1426      H1430   1.046       .  S
N1428      H1431   1.046       .  S
N1428      H1432   1.045       .  S
C1437      C1438   1.414       .  A
C1437      C1442   1.411       .  A
C1438      C1439   1.407       .  A
C1438      N1443   1.438       .  S
C1439      C1440   1.404       .  A
C1439      H1444   1.084       .  S
C1440      C1445   1.480       .  S
C1440      C1441   1.412       .  A
C1441      C1442   1.400       .  A
C1441      N1446   1.440       .  S
C1442      H1447   1.083       .  S
N1443      H1463   1.045       .  S
N1443      H1464   1.046       .  S
C1445      C1448   1.405       .  A
C1445      C1452   1.405       .  A
N1446      H1461   1.046       .  S
N1446      H1462   1.043       .  S
C1448      C1449   1.409       .  A
C1448      H1453   1.084       .  S
C1449      C1450   1.414       .  A
C1449      N1454   1.438       .  S
C1450      C1451   1.406       .  A
C1451      C1452   1.400       .  A
C1451      H1455   1.084       .  S
C1452      N1456   1.438       .  S
N1454      H1457   1.046       .  S
N1454      H1458   1.045       .  S
N1456      H1459   1.046       .  S
N1456      H1460   1.046       .  S
C1465      C1466   1.416       .  A
C1465      C1470   1.409       .  A
C1466      C1467   1.408       .  A
C1466      N1471   1.438       .  S
C1467      C1468   1.402       .  A
C1467      H1472   1.084       .  S
C1468      C1473   1.485       .  S
C1468      C1469   1.407       .  A
C1469      C1470   1.407       .  A
C1469      N1474   1.437       .  S
C1470      H1475   1.083       .  S
N1471      H1491   1.046       .  S
N1471      H1492   1.046       .  S
C1473      C1476   1.403       .  A
C1473      C1480   1.407       .  A
N1474      H1489   1.046       .  S
N1474      H1490   1.046       .  S
C1476      C1477   1.410       .  A
C1476      H1481   1.084       .  S
C1477      C1478   1.415       .  A
C1477      N1482   1.437       .  S
C1478      C1479   1.407       .  A
C1479      C1480   1.407       .  A
C1479      H1483   1.083       .  S
C1480      N1484   1.438       .  S
N1482      H1485   1.046       .  S
N1482      H1486   1.046       .  S
N1484      H1487   1.046       .  S
N1484      H1488   1.046       .  S
C1493      C1494   1.415       .  A
C1493      C1498   1.409       .  A
C1494      C1495   1.409       .  A
C1494      N1499   1.437       .  S
C1495      C1496   1.403       .  A
C1495      H1500   1.084       .  S
C1496      C1501   1.480       .  S
C1496      C1497   1.405       .  A
C1497      C1498   1.403       .  A
C1497      N1502   1.438       .  S
C1498      H1503   1.083       .  S
N1499      H1519   1.046       .  S
N1499      H1520   1.046       .  S
C1501      C1504   1.402       .  A
C1501      C1508   1.405       .  A
N1502      H1517   1.046       .  S
N1502      H1518   1.046       .  S
C1504      C1505   1.407       .  A
C1504      H1509   1.084       .  S
C1505      C1506   1.417       .  A
C1505      N1510   1.438       .  S
C1506      C1507   1.410       .  A
C1507      C1508   1.404       .  A
C1507      H1511   1.083       .  S
C1508      N1512   1.438       .  S
N1510      H1513   1.046       .  S
N1510      H1514   1.046       .  S
N1512      H1515   1.046       .  S
N1512      H1516   1.046       .  S
C1521      C1522   1.420       .  A
C1521      C1526   1.407       .  A
C1522      C1523   1.399       .  A
C1522      N1527   1.438       .  S
C1523      C1524   1.394       .  A
C1523      H1528   1.084       .  S
C1524      C1529   1.468       .  S
C1524      C1525   1.406       .  A
C1525      C1526   1.405       .  A
C1525      N1530   1.438       .  S
C1526      H1531   1.083       .  S
N1527      H1547   1.046       .  S
N1527      H1548   1.046       .  S
C1529      C1532   1.397       .  A
C1529      C1536   1.409       .  A
N1530      H1545   1.046       .  S
N1530      H1546   1.045       .  S
C1532      C1533   1.397       .  A
C1532      H1537   1.084       .  S
C1533      C1534   1.409       .  A
C1533      N1538   1.433       .  S
C1534      C1535   1.403       .  A
C1535      C1536   1.404       .  A
C1535      H1539   1.084       .  S
C1536      N1540   1.438       .  S
N1538      H1541   1.045       .  S
N1538      H1542   1.046       .  S
N1540      H1543   1.046       .  S
N1540      H1544   1.046       .  S
C1549      C1550   1.415       .  A
C1549      C1554   1.410       .  A
C1550      C1551   1.404       .  A
C1550      N1555   1.438       .  S
C1551      C1552   1.403       .  A
C1551      H1556   1.083       .  S
C1552      C1557   1.492       .  S
C1552      C1553   1.412       .  A
C1553      C1554   1.409       .  A
C1553      N1558   1.438       .  S
C1554      H1559   1.084       .  S
N1555      H1575   1.046       .  S
N1555      H1576   1.046       .  S
C1557      C1560   1.404       .  A
C1557      C1564   1.413       .  A
N1558      H1573   1.046       .  S
N1558      H1574   1.046       .  S
C1560      C1561   1.407   1_455  A
C1560      H1565   1.083       .  S
C1561      C1562   1.415       .  A
C1561      N1566   1.437       .  S
C1562      C1563   1.405   1_655  A
C1563      C1564   1.406       .  A
C1563      H1567   1.084       .  S
C1564      N1568   1.438       .  S
N1566      H1569   1.046       .  S
N1566      H1570   1.045       .  S
N1568      H1571   1.046       .  S
N1568      H1572   1.046       .  S
C1577      C1578   1.419       .  A
C1577      C1582   1.408       .  A
C1578      C1579   1.405       .  A
C1578      N1583   1.437       .  S
C1579      C1580   1.401       .  A
C1579      H1584   1.083       .  S
C1580      C1585   1.485       .  S
C1580      C1581   1.410       .  A
C1581      C1582   1.403       .  A
C1581      N1586   1.438       .  S
C1582      H1587   1.083       .  S
N1583      H1603   1.045       .  S
N1583      H1604   1.046       .  S
C1585      C1588   1.403       .  A
C1585      C1592   1.413       .  A
N1586      H1601   1.046       .  S
N1586      H1602   1.046       .  S
C1588      C1589   1.402       .  A
C1588      H1593   1.084       .  S
C1589      C1590   1.409       .  A
C1589      N1594   1.438       .  S
C1590      C1591   1.402       .  A
C1591      C1592   1.407       .  A
C1591      H1595   1.084       .  S
C1592      N1596   1.438       .  S
N1594      H1597   1.046       .  S
N1594      H1598   1.046       .  S
N1596      H1599   1.046       .  S
N1596      H1600   1.045       .  S
C1605      C1606   1.413       .  A
C1605      C1610   1.404       .  A
C1606      C1607   1.407       .  A
C1606      N1611   1.438       .  S
C1607      C1608   1.403       .  A
C1607      H1612   1.084       .  S
C1608      C1613   1.473       .  S
C1608      C1609   1.406       .  A
C1609      C1610   1.398       .  A
C1609      N1614   1.438       .  S
C1610      H1615   1.082       .  S
N1611      H1631   1.046       .  S
N1611      H1632   1.046       .  S
C1613      C1616   1.401       .  A
C1613      C1620   1.408       .  A
N1614      H1629   1.046       .  S
N1614      H1630   1.046       .  S
C1616      C1617   1.401       .  A
C1616      H1621   1.084       .  S
C1617      C1618   1.410   1_565  A
C1617      N1622   1.438   1_565  S
C1618      C1619   1.403   1_545  A
C1619      C1620   1.403       .  A
C1619      H1623   1.084       .  S
C1620      N1624   1.437       .  S
N1622      H1625   1.046       .  S
N1622      H1626   1.046       .  S
N1624      H1627   1.046       .  S
N1624      H1628   1.046       .  S
C1633      C1634   1.420       .  A
C1633      C1638   1.409       .  A
C1634      C1635   1.405       .  A
C1634      N1639   1.435       .  S
C1635      C1636   1.397       .  A
C1635      H1640   1.084       .  S
C1636      C1641   1.478       .  S
C1636      C1637   1.407       .  A
C1637      C1638   1.406       .  A
C1637      N1642   1.438       .  S
C1638      H1643   1.083       .  S
N1639      H1659   1.044       .  S
N1639      H1660   1.046       .  S
C1641      C1644   1.398       .  A
C1641      C1648   1.409       .  A
N1642      H1657   1.045       .  S
N1642      H1658   1.046       .  S
C1644      C1645   1.404       .  A
C1644      H1649   1.084       .  S
C1645      C1646   1.418       .  A
C1645      N1650   1.438       .  S
C1646      C1647   1.405       .  A
C1647      C1648   1.407       .  A
C1647      H1651   1.084       .  S
C1648      N1652   1.438       .  S
N1650      H1653   1.046       .  S
N1650      H1654   1.045       .  S
N1652      H1655   1.046       .  S
N1652      H1656   1.046       .  S
C1661      C1662   1.413       .  A
C1661      C1666   1.403       .  A
C1662      C1663   1.404       .  A
C1662      N1667   1.438       .  S
C1663      C1664   1.399       .  A
C1663      H1668   1.084       .  S
C1664      C1669   1.473       .  S
C1664      C1665   1.408       .  A
C1665      C1666   1.403       .  A
C1665      N1670   1.438       .  S
C1666      H1671   1.084       .  S
N1667      H1687   1.046       .  S
N1667      H1688   1.046       .  S
C1669      C1672   1.399       .  A
C1669      C1676   1.408       .  A
N1670      H1685   1.046       .  S
N1670      H1686   1.046       .  S
C1672      C1673   1.403       .  A
C1672      H1677   1.084       .  S
C1673      C1674   1.412       .  A
C1673      N1678   1.438       .  S
C1674      C1675   1.404       .  A
C1675      C1676   1.405       .  A
C1675      H1679   1.084       .  S
C1676      N1680   1.437       .  S
N1678      H1681   1.046       .  S
N1678      H1682   1.046       .  S
N1680      H1683   1.046       .  S
N1680      H1684   1.045       .  S
C1689      C1690   1.414   1_565  A
C1689      C1694   1.405       .  A
C1690      C1691   1.402       .  A
C1690      N1695   1.439       .  S
C1691      C1692   1.400       .  A
C1691      H1696   1.084       .  S
C1692      C1697   1.480       .  S
C1692      C1693   1.410       .  A
C1693      C1694   1.407   1_545  A
C1693      N1698   1.437       .  S
C1694      H1699   1.084       .  S
N1695      H1715   1.046   1_545  S
N1695      H1716   1.046       .  S
C1697      C1700   1.401       .  A
C1697      C1704   1.408       .  A
N1698      H1713   1.046   1_545  S
N1698      H1714   1.046       .  S
C1700      C1701   1.407       .  A
C1700      H1705   1.084       .  S
C1701      C1702   1.417       .  A
C1701      N1706   1.438       .  S
C1702      C1703   1.406       .  A
C1703      C1704   1.404       .  A
C1703      H1707   1.083       .  S
C1704      N1708   1.438       .  S
N1706      H1709   1.046       .  S
N1706      H1710   1.046       .  S
N1708      H1711   1.046       .  S
N1708      H1712   1.046       .  S
C1717      C1718   1.412       .  A
C1717      C1722   1.408       .  A
C1718      C1719   1.407       .  A
C1718      N1723   1.438       .  S
C1719      C1720   1.405       .  A
C1719      H1724   1.084       .  S
C1720      C1725   1.483       .  S
C1720      C1721   1.407       .  A
C1721      C1722   1.402       .  A
C1721      N1726   1.438       .  S
C1722      H1727   1.084       .  S
N1723      H1743   1.046       .  S
N1723      H1744   1.046       .  S
C1725      C1728   1.404       .  A
C1725      C1732   1.405       .  A
N1726      H1741   1.046       .  S
N1726      H1742   1.046       .  S
C1728      C1729   1.409       .  A
C1728      H1733   1.084       .  S
C1729      C1730   1.418       .  A
C1729      N1734   1.438       .  S
C1730      C1731   1.410       .  A
C1731      C1732   1.401       .  A
C1731      H1735   1.083       .  S
C1732      N1736   1.438       .  S
N1734      H1737   1.046       .  S
N1734      H1738   1.045       .  S
N1736      H1739   1.046       .  S
N1736      H1740   1.046       .  S
C1745      C1746   1.415       .  A
C1745      C1750   1.407       .  A
C1746      C1747   1.405       .  A
C1746      N1751   1.438       .  S
C1747      C1748   1.402       .  A
C1747      H1752   1.084       .  S
C1748      C1753   1.485       .  S
C1748      C1749   1.409       .  A
C1749      C1750   1.407       .  A
C1749      N1754   1.438       .  S
C1750      H1755   1.084       .  S
N1751      H1771   1.045       .  S
N1751      H1772   1.046       .  S
C1753      C1756   1.405       .  A
C1753      C1760   1.408       .  A
N1754      H1769   1.046       .  S
N1754      H1770   1.046       .  S
C1756      C1757   1.409   1_655  A
C1756      H1761   1.084       .  S
C1757      C1758   1.414       .  A
C1757      N1762   1.438       .  S
C1758      C1759   1.406   1_455  A
C1759      C1760   1.403       .  A
C1759      H1763   1.084   1_655  S
C1760      N1764   1.438       .  S
N1762      H1765   1.046       .  S
N1762      H1766   1.046       .  S
N1764      H1767   1.046       .  S
N1764      H1768   1.046       .  S
C1773      C1774   1.419       .  A
C1773      C1778   1.408       .  A
C1774      C1775   1.403       .  A
C1774      N1779   1.438       .  S
C1775      C1776   1.397       .  A
C1775      H1780   1.084       .  S
C1776      C1781   1.475       .  S
C1776      C1777   1.407       .  A
C1777      C1778   1.405       .  A
C1777      N1782   1.438       .  S
C1778      H1783   1.083       .  S
N1779      H1799   1.046       .  S
N1779      H1800   1.046       .  S
C1781      C1784   1.398       .  A
C1781      C1788   1.408       .  A
N1782      H1797   1.046       .  S
N1782      H1798   1.046       .  S
C1784      C1785   1.402       .  A
C1784      H1789   1.084       .  S
C1785      C1786   1.415       .  A
C1785      N1790   1.438       .  S
C1786      C1787   1.404       .  A
C1787      C1788   1.405       .  A
C1787      H1791   1.084       .  S
C1788      N1792   1.437       .  S
N1790      H1793   1.046       .  S
N1790      H1794   1.046       .  S
N1792      H1795   1.046       .  S
N1792      H1796   1.046       .  S
