geometry optimzed in LAMMPS
_audit_creation_date              2020-12-01 
_audit_creation_method            'lammps2cif' 
_symmetry_space_group_name_H-M    'P1' 
_symmetry_Int_Tables_number       1 
_symmetry_cell_setting            triclinic 
loop_ 
_symmetry_equiv_pos_as_xyz 
  x,y,z 
_cell_length_a                    80.64964184 
_cell_length_b                    80.63383532940112 
_cell_length_c                    50.126618696259165 
_cell_angle_alpha                 90.00957975856227 
_cell_angle_beta                  89.98648623364761 
_cell_angle_gamma                 119.91367406411275 
loop_ 
_atom_site_label 
_atom_site_type_symbol 
_atom_site_fract_x 
_atom_site_fract_y 
_atom_site_fract_z 
_atom_site_charge 
Zr1        Zr  0.84388923  0.25194647  0.28345712     2.17500
O2          O  0.84457928  0.22237093  0.29053059    -0.51100
O3          O  0.81001867  0.23150804  0.29424849    -0.74300
O4          O  0.85252736  0.24909917  0.32920211    -0.81100
O5          O  0.84151059  0.24391666  0.20824600    -0.82800
O6          O  0.86358015  0.27725466  0.35128654    -0.78500
O7          O  0.84326905  0.23098037  0.24758064    -0.90100
O8          O  0.79478635  0.24820194  0.28638491    -0.76100
O9          O  0.83520823  0.27265287  0.30595362    -0.85600
O10         O  0.82672886  0.25963748  0.25183897    -0.85200
O11         O  0.87371969  0.27926187  0.29708440    -0.72000
O12         O  0.86550482  0.26726051  0.24708733    -0.84100
Zr13       Zr  0.87086025  0.32424753  0.25054420     2.26400
Zr14       Zr  0.86480885  0.30043873  0.31853809     2.06300
Zr15       Zr  0.84857898  0.27606505  0.21645804     2.10000
Zr16       Zr  0.81861932  0.28066291  0.27372740     1.78800
O17         O  0.86598368  0.27517407  0.17727855    -0.92900
O18         O  0.80284185  0.28376321  0.31336056    -0.40800
O19         O  0.84038770  0.29742388  0.23775114    -0.77400
O20         O  0.84807360  0.30872432  0.28640165    -0.96100
O21         O  0.88700271  0.31565641  0.28266383    -0.89400
O22         O  0.87873797  0.30299128  0.22847647    -0.92200
C23         C  0.79483690  0.23291216  0.29331545     1.01500
C24         C  0.84164426  0.23063255  0.22200932     1.14500
C25         C  0.85923812  0.25957677  0.35014516     1.05200
O26         O  0.84338388  0.30090879  0.35240175    -0.94400
O27         O  0.87438299  0.33423536  0.32579445    -0.90100
O28         O  0.87771060  0.34781106  0.28501604    -0.83300
C29         C  0.87805654  0.34856163  0.31055675     1.11900
O30         O  0.90585041  0.27143623  0.26718896    -0.96300
Zr31       Zr  0.89488667  0.29438329  0.26049977     1.88900
O32         O  0.90587002  0.34514252  0.24601873    -0.73000
O33         O  0.89312464  0.31558679  0.34682259    -0.52300
O34         O  0.91927643  0.30324062  0.29483632    -0.96900
O35         O  0.90841216  0.28898676  0.22007464    -0.54200
O36         O  0.91950321  0.32645772  0.24981726    -0.73500
C37         C  0.92047670  0.34264558  0.24648292     0.98800
O38         O  0.86360942  0.34909107  0.23730778    -0.62300
O39         O  0.81779294  0.26073110  0.19360751    -0.57100
O40         O  0.86759704  0.32907290  0.20278504    -0.93800
O41         O  0.85150244  0.29943424  0.18437201    -0.92200
O42         O  0.79472157  0.26916625  0.23835050    -0.92600
O43         O  0.80499706  0.30144806  0.26773177    -0.91400
C44         C  0.85940026  0.31764594  0.18298705     1.17700
H45         H  0.81560861  0.24830668  0.24517834     0.33600
H46         H  0.84465444  0.31755291  0.29421971     0.44500
H47         H  0.88663051  0.30892017  0.21298175     0.38000
H48         H  0.88083229  0.27574244  0.30904187     0.34500
H49         H  0.78898917  0.27608777  0.30936832     0.26300
H50         H  0.88813499  0.31506704  0.36504143     0.32200
H51         H  0.92177014  0.31584590  0.30146054     0.38100
H52         H  0.78227946  0.26176249  0.24760414     0.32600
H53         H  0.81497468  0.27114744  0.19002449     0.31400
H54         H  0.85674738  0.27149744  0.16237781     0.33100
H55         H  0.91242630  0.30050458  0.20893256     0.32100
H56         H  0.81438545  0.31381451  0.27584340     0.36100
H57         H  0.85518781  0.34944213  0.25141636     0.28800
H58         H  0.83502725  0.21539288  0.30466575     0.33100
H59         H  0.91946368  0.27807515  0.26169704     0.35900
H60         H  0.82046569  0.25723443  0.17583388     0.28500
H61         H  0.87578815  0.36135427  0.23901469     0.41400
H62         H  0.83486372  0.28731462  0.35718575     0.31400
H63         H  0.80496616  0.27632744  0.32729976     0.39100
H64         H  0.89732673  0.27863186  0.21054063     0.30900
H65         H  0.89810074  0.30657300  0.34721119     0.31000
H66         H  0.85714823  0.22618687  0.29874355     0.31200
Zr67       Zr  0.90453801  0.19210185  0.55442201     2.17500
O68         O  0.87656157  0.19511771  0.54352900    -0.51100
O69         O  0.88457189  0.15816827  0.54411961    -0.74300
O70         O  0.90149259  0.19919406  0.50813274    -0.81100
O71         O  0.89625026  0.19336078  0.62929247    -0.82800
O72         O  0.93045793  0.21304409  0.48768939    -0.78500
O73         O  0.88176883  0.18935561  0.58911605    -0.90100
O74         O  0.90160492  0.14319252  0.55114405    -0.76100
O75         O  0.92511297  0.18266131  0.53319133    -0.85600
O76         O  0.91187519  0.17549349  0.58742892    -0.85200
O77         O  0.93230733  0.22154407  0.54032042    -0.72000
O78         O  0.91977185  0.21475183  0.58988846    -0.84100
Zr79       Zr  0.97621983  0.21864276  0.58867291     2.26400
Zr80       Zr  0.95300288  0.21169706  0.51960039     2.06300
Zr81       Zr  0.92783555  0.19825072  0.62217041     2.10000
Zr82       Zr  0.93303793  0.16687304  0.56679733     1.78800
O83         O  0.92794795  0.21804922  0.65890315    -0.92900
O84         O  0.93808651  0.15117305  0.52859809    -0.40800
O85         O  0.94894912  0.18906646  0.60246373    -0.77400
O86         O  0.96107684  0.19559263  0.55311226    -0.96100
O87         O  0.96838659  0.23440784  0.55493075    -0.89400
O88         O  0.95533251  0.22759228  0.60931603    -0.92200
C89         C  0.88630958  0.14317883  0.54415686     1.01500
C90         C  0.88204110  0.19057444  0.61476908     1.14500
C91         C  0.91249017  0.20772767  0.48826640     1.05200
O92         O  0.94989467  0.18774448  0.48731159    -0.94400
O93         O  0.98664337  0.22006605  0.51383865    -0.90100
O94         O  0.99993206  0.22419999  0.55502444    -0.83300
C95         C  0.00082564  0.22390786  0.52948985     1.11900
O96         O  0.92362360  0.25273246  0.56765476    -0.96300
Zr97       Zr  0.94768030  0.24347016  0.57589021     1.88900
O98         O  0.99809637  0.25322529  0.59181077    -0.73000
O99         O  0.97035638  0.23720015  0.48729011    -0.52300
O100        O  0.95836383  0.26724542  0.54046568    -0.96900
O101        O  0.94575378  0.26107508  0.61426341    -0.54200
O102        O  0.98024646  0.26754215  0.58537293    -0.73500
C103        C  0.99610044  0.26802798  0.58979700     0.98800
O104        O  0.99943419  0.20991325  0.60453398    -0.62300
O105        O  0.91215738  0.16859296  0.64772086    -0.57100
O106        O  0.98054354  0.21767192  0.63708702    -0.93800
O107        O  0.95079984  0.20165222  0.65529696    -0.92200
O108        O  0.92097226  0.14284473  0.60197979    -0.92600
O109        O  0.95505365  0.15532972  0.57697958    -0.91400
C110        C  0.96902968  0.20982633  0.65689720     1.17700
H111        H  0.90048233  0.16444231  0.59410531     0.33600
H112        H  0.96974452  0.19169742  0.54602451     0.44500
H113        H  0.96129739  0.23581860  0.62450833     0.38000
H114        H  0.92884364  0.22867339  0.52832250     0.34500
H115        H  0.93104951  0.13736975  0.53306999     0.26300
H116        H  0.96632644  0.23099580  0.46959138     0.32200
H117        H  0.96711308  0.26476166  0.52952094     0.38100
H118        H  0.91232119  0.13062839  0.59286764     0.32600
H119        H  0.92206350  0.16488006  0.65008825     0.31400
H120        H  0.92291613  0.20927221  0.67436806     0.33100
H121        H  0.95692802  0.26390742  0.62556699     0.32100
H122        H  0.96434319  0.16487474  0.58963164     0.36100
H123        H  0.99904011  0.20054304  0.59141002     0.28800
H124        H  0.86943445  0.18559423  0.52939557     0.33100
H125        H  0.93044548  0.26684905  0.56924790     0.35900
H126        H  0.91039195  0.17249073  0.66574948     0.28500
H127        H  0.01212287  0.22148422  0.60203953     0.41400
H128        H  0.95569865  0.19505968  0.47075655     0.31400
H129        H  0.93055433  0.15245523  0.51396823     0.39100
H130        H  0.93458183  0.25150193  0.62455177     0.30900
H131        H  0.96459745  0.24550977  0.48860533     0.31000
H132        H  0.88135454  0.20780304  0.53504495     0.31200
Zr133      Zr  0.92776231  0.42355668  0.88771753     2.17500
O134        O  0.95569579  0.45457431  0.87775316    -0.51100
O135        O  0.91138994  0.44107620  0.87547845    -0.74300
O136        O  0.93877625  0.42634587  0.84172126    -0.81100
O137        O  0.93541211  0.43260354  0.96267009    -0.82800
O138        O  0.92373791  0.39722324  0.82173148    -0.78500
O139        O  0.94811405  0.44588848  0.92251626    -0.90100
O140        O  0.87943693  0.42293295  0.88147511    -0.76100
O141        O  0.89914297  0.40084416  0.86586872    -0.85600
O142        O  0.90268084  0.41511861  0.91922503    -0.85200
O143        O  0.93282368  0.39730866  0.87612771    -0.72000
O144        O  0.93531547  0.40979944  0.92483880    -0.84100
Zr145      Zr  0.88574646  0.35154613  0.92444641     2.26400
Zr146      Zr  0.90331338  0.37406730  0.85547449     2.06300
Zr147      Zr  0.90979262  0.40067325  0.95575561     2.10000
Zr148      Zr  0.87413963  0.39222487  0.89745218     1.78800
O149        O  0.92917691  0.40260349  0.99420278    -0.92900
O150        O  0.85734642  0.38441293  0.85483510    -0.40800
O151        O  0.88061992  0.37781586  0.93518614    -0.77400
O152        O  0.87773169  0.36522194  0.88701833    -0.96100
O153        O  0.91075395  0.36034166  0.89263088    -0.89400
O154        O  0.91451297  0.37441784  0.94561303    -0.92200
C155        C  0.89436997  0.43858357  0.87464567     1.01500
C156        C  0.94797663  0.44607757  0.94821203     1.14500
C157        C  0.93571455  0.41532905  0.82157886     1.05200
O158        O  0.88457202  0.37110286  0.81588559    -0.94400
O159        O  0.87890574  0.34026143  0.84975875    -0.90100
O160        O  0.86959529  0.32684269  0.89088923    -0.83300
C161        C  0.86872668  0.32596766  0.86530489     1.11900
O162        O  0.97300883  0.40816992  0.91392830    -0.96300
Zr163      Zr  0.93940735  0.38328311  0.91386770     1.88900
O164        O  0.90063128  0.33151569  0.92980109    -0.73000
O165        O  0.92028259  0.35970318  0.83420874    -0.52300
O166        O  0.95631523  0.37607157  0.87949053    -0.96900
O167        O  0.95670306  0.38610709  0.95515956    -0.54200
O168        O  0.93243930  0.35110322  0.92287305    -0.73500
C169        C  0.91789800  0.33468771  0.92768162     0.98800
O170        O  0.85384140  0.32767091  0.93989901    -0.62300
O171        O  0.89439506  0.41627967  0.97800320    -0.57100
O172        O  0.88008409  0.34801360  0.97294852    -0.93800
O173        O  0.89000074  0.37783569  0.98892404    -0.92200
O174        O  0.85741617  0.40298739  0.92709145    -0.92600
O175        O  0.84036283  0.36935083  0.90441641    -0.91400
C176        C  0.88170581  0.35966336  0.99174241     1.17700
H177        H  0.90205501  0.42620449  0.92508902     0.33600
H178        H  0.86563828  0.35587500  0.87942404     0.44500
H179        H  0.91692754  0.36921581  0.96153760     0.38000
H180        H  0.94356250  0.40135450  0.86418030     0.34500
H181        H  0.85010476  0.39135334  0.85502132     0.26300
H182        H  0.91590966  0.35772907  0.81542776     0.32200
H183        H  0.94939687  0.36195530  0.87781783     0.38100
H184        H  0.86752231  0.41516223  0.93481503     0.32600
H185        H  0.88055344  0.40684312  0.97705947     0.31400
H186        H  0.92649375  0.40985812  0.00780464     0.33100
H187        H  0.94883931  0.37400826  0.96499394     0.32100
H188        H  0.83997441  0.35724210  0.90915633     0.36100
H189        H  0.84870059  0.33512976  0.94879913     0.28800
H190        H  0.95194712  0.45986739  0.86258511     0.33100
H191        H  0.98036452  0.40134249  0.91421446     0.35900
H192        H  0.89769886  0.41657676  0.99708127     0.28500
H193        H  0.84570772  0.32249486  0.92385402     0.41400
H194        H  0.88632055  0.36225702  0.80405492     0.31400
H195        H  0.86738455  0.39115907  0.84118715     0.39100
H196        H  0.95567138  0.39592568  0.96573262     0.30900
H197        H  0.93378677  0.37010477  0.83339153     0.31000
H198        H  0.96547663  0.45180679  0.87046048     0.31200
Zr199      Zr  0.04816372  0.48566721  0.61526732     2.17500
O200        O  0.01819242  0.48558815  0.62251782    -0.51100
O201        O  0.06368292  0.51956324  0.62651434    -0.74300
O202        O  0.03688119  0.47828365  0.66119264    -0.81100
O203        O  0.04109368  0.48655621  0.54042684    -0.82800
O204        O  0.05066028  0.46305085  0.68165716    -0.78500
O205        O  0.03020571  0.49080873  0.58007585    -0.90100
O206        O  0.09530812  0.53356168  0.61729247    -0.76100
O207        O  0.07697183  0.49247389  0.63762772    -0.85600
O208        O  0.07319172  0.50207698  0.58369971    -0.85200
O209        O  0.04361664  0.45481278  0.62820770    -0.72000
O210        O  0.04073963  0.46367660  0.57896040    -0.84100
Zr211      Zr  0.09106089  0.45596043  0.58167622     2.26400
Zr212      Zr  0.07312985  0.46194443  0.64983419     2.06300
Zr213      Zr  0.06649293  0.47997014  0.54829314     2.10000
Zr214      Zr  0.10182781  0.50825464  0.60551957     1.78800
O215        O  0.04851031  0.46617890  0.50747966    -0.92900
O216        O  0.11950582  0.52151530  0.64676764    -0.40800
O217        O  0.09580736  0.48677988  0.56890898    -0.77400
O218        O  0.09865159  0.47821715  0.61816388    -0.96100
O219        O  0.06602367  0.44017226  0.61357064    -0.89400
O220        O  0.06217428  0.44939287  0.56007366    -0.92200
C221        C  0.08049673  0.53427558  0.62484384     1.01500
C222        C  0.02998915  0.49009798  0.55443564     1.14500
C223        C  0.03888162  0.46946606  0.68117179     1.05200
O224        O  0.09194759  0.48078707  0.68772746    -0.94400
O225        O  0.09788239  0.45306402  0.65661395    -0.90100
O226        O  0.10728478  0.44811048  0.61595554    -0.83300
C227        C  0.10811886  0.44868197  0.64155962     1.11900
O228        O  0.00355300  0.42437058  0.59393600    -0.96300
Zr229      Zr  0.03727416  0.43351308  0.59163130     1.88900
O230        O  0.07702261  0.42128035  0.57894983    -0.73000
O231        O  0.05866424  0.43182224  0.67434706    -0.52300
O232        O  0.02099388  0.40972595  0.62651055    -0.96900
O233        O  0.01992981  0.41886808  0.55050071    -0.54200
O234        O  0.04484977  0.40848847  0.58304625    -0.73500
C235        C  0.05985237  0.40704863  0.57990348     0.98800
O236        O  0.12368737  0.46562284  0.56782882    -0.62300
O237        O  0.08473493  0.51141706  0.52757540    -0.57100
O238        O  0.09550350  0.45529062  0.53299205    -0.93800
O239        O  0.08388037  0.47336895  0.51532727    -0.92200
O240        O  0.11845510  0.53199945  0.57078477    -0.92600
O241        O  0.13588367  0.51971675  0.60096556    -0.91400
C242        C  0.09238436  0.46364438  0.51322823     1.17700
H243        H  0.07361527  0.51355611  0.57717008     0.33600
H244        H  0.11080011  0.48130841  0.62596507     0.44500
H245        H  0.05971810  0.44137913  0.54457197     0.38000
H246        H  0.03270383  0.44812383  0.63984579     0.34500
H247        H  0.12486027  0.53550968  0.64510398     0.26300
H248        H  0.06126120  0.43556798  0.69336050     0.32200
H249        H  0.01670009  0.39720960  0.61779605     0.38100
H250        H  0.10997249  0.53724318  0.56658795     0.32600
H251        H  0.09471661  0.51079514  0.51684504     0.31400
H252        H  0.05430811  0.47662037  0.49415915     0.33100
H253        H  0.02459817  0.41023262  0.54445291     0.32100
H254        H  0.13653107  0.50889087  0.59273179     0.36100
H255        H  0.12750730  0.47677308  0.55595939     0.28800
H256        H  0.02109601  0.49564106  0.63602112     0.33100
H257        H  0.99632049  0.41022082  0.59293121     0.35900
H258        H  0.07593853  0.51191001  0.51423856     0.28500
H259        H  0.13172746  0.47126056  0.58386931     0.41400
H260        H  0.08689958  0.47192072  0.70309947     0.31400
H261        H  0.10960838  0.51758377  0.66079824     0.39100
H262        H  0.02506004  0.42936385  0.53724200     0.30900
H263        H  0.04470069  0.42649291  0.67234541     0.31000
H264        H  0.00946218  0.47334536  0.63151610     0.31200
Zr265      Zr  0.07422334  0.27484516  0.95127259     2.17500
O266        O  0.10155374  0.30688883  0.95763508    -0.51100
O267        O  0.09351129  0.26047313  0.96421694    -0.74300
O268        O  0.07751910  0.28651424  0.99683973    -0.81100
O269        O  0.08287793  0.27952919  0.87633216    -0.82800
O270        O  0.04811694  0.27430326  0.01583837    -0.78500
O271        O  0.09703441  0.29289999  0.91574550    -0.90100
O272        O  0.07447923  0.22823036  0.96414859    -0.76100
O273        O  0.05186661  0.24701172  0.97534585    -0.85600
O274        O  0.06626455  0.24841814  0.92246646    -0.85200
O275        O  0.04765416  0.27963605  0.96131281    -0.72000
O276        O  0.06021953  0.28036586  0.91266534    -0.84100
Zr277      Zr  0.00250741  0.23079940  0.91616586     2.26400
Zr278      Zr  0.02485662  0.25107335  0.98431653     2.06300
Zr279      Zr  0.05141240  0.25339277  0.88459713     2.10000
Zr280      Zr  0.04355664  0.22077779  0.94597914     1.78800
O281        O  0.05723329  0.26797465  0.84051754    -0.92900
O282        O  0.03553232  0.20218985  0.98715034    -0.40800
O283        O  0.02857168  0.22507359  0.90702261    -0.77400
O284        O  0.01640783  0.22451585  0.95492483    -0.96100
O285        O  0.01120460  0.25695168  0.94572030    -0.89400
O286        O  0.02521783  0.25866706  0.89300140    -0.92200
C287        C  0.09062753  0.24345236  0.96804591     1.01500
C288        C  0.09682989  0.29210662  0.89008809     1.14500
C289        C  0.06641987  0.28541411  0.01596050     1.05200
O290        O  0.02353606  0.23311281  0.02401549    -0.94400
O291        O  0.99083829  0.22697093  0.99051745    -0.90100
O292        O  0.97771197  0.21623345  0.94951464    -0.83300
C293        C  0.97662645  0.21633539  0.97504685     1.11900
O294        O  0.05745084  0.31861860  0.92651184    -0.96300
Zr295      Zr  0.03373966  0.28475051  0.92237597     1.88900
O296        O  0.98219514  0.24532301  0.91032526    -0.73000
O297        O  0.00940453  0.26720522  0.00497336    -0.52300
O298        O  0.02295336  0.30099486  0.95290407    -0.96900
O299        O  0.04144348  0.30269175  0.88067272    -0.54200
O300        O  0.00215525  0.27749005  0.90852391    -0.73500
C301        C  0.98548111  0.26260688  0.90770909     0.98800
O302        O  0.97925759  0.19720539  0.90758182    -0.62300
O303        O  0.06472966  0.23389222  0.86888381    -0.57100
O304        O  0.99830690  0.22506290  0.86772374    -0.93800
O305        O  0.02809695  0.23597411  0.85089013    -0.92200
O306        O  0.05542152  0.20640559  0.91399850    -0.92600
O307        O  0.02250552  0.18636687  0.94114657    -0.91400
C308        C  0.00993996  0.22769793  0.84840386     1.17700
H309        H  0.07741995  0.24769015  0.91727226     0.33600
H310        H  0.00707913  0.21273230  0.96328611     0.44500
H311        H  0.02004289  0.26067815  0.87673416     0.38000
H312        H  0.05171441  0.29088991  0.97222459     0.34500
H313        H  0.04391870  0.19647070  0.98730795     0.26300
H314        H  0.00792322  0.26335063  0.02396337     0.32200
H315        H  0.00981784  0.29119088  0.95812837     0.38100
H316        H  0.06261582  0.20182756  0.92481064     0.32600
H317        H  0.05504779  0.22463933  0.85635293     0.31400
H318        H  0.06300566  0.26172044  0.83003629     0.33100
H319        H  0.02979571  0.30322400  0.87598750     0.32100
H320        H  0.00942195  0.18434954  0.94327294     0.36100
H321        H  0.98343836  0.19370773  0.89099337     0.28800
H322        H  0.10954701  0.30566498  0.97161528     0.33100
H323        H  0.05043295  0.32562781  0.92353136     0.35900
H324        H  0.07562128  0.24257172  0.85738827     0.28500
H325        H  0.98175903  0.19011611  0.92166836     0.41400
H326        H  0.01541629  0.23534846  0.03665161     0.31400
H327        H  0.04061343  0.21184006  0.00159730     0.39100
H328        H  0.04225169  0.29423757  0.86704957     0.30900
H329        H  0.01926722  0.28093889  0.00502085     0.31000
H330        H  0.09639623  0.31456254  0.96583645     0.31200
Zr331      Zr  0.13711681  0.39766512  0.22240670     2.17500
O332        O  0.13494526  0.36658618  0.21581494    -0.51100
O333        O  0.17117883  0.41203168  0.21166608    -0.74300
O334        O  0.12968437  0.38588744  0.17663989    -0.81100
O335        O  0.13758429  0.39204810  0.29776621    -0.82800
O336        O  0.11618855  0.40086972  0.15484620    -0.78500
O337        O  0.13973444  0.37888517  0.25887277    -0.90100
O338        O  0.18526838  0.44413704  0.21686877    -0.76100
O339        O  0.14438523  0.42616263  0.19865383    -0.85600
O340        O  0.15426285  0.42349684  0.25279810    -0.85200
O341        O  0.10662631  0.39385398  0.20896611    -0.72000
O342        O  0.11574440  0.39207762  0.25895899    -0.84100
Zr343      Zr  0.10929736  0.44288334  0.25290545     2.26400
Zr344      Zr  0.11426950  0.42307978  0.18601870     2.06300
Zr345      Zr  0.13272473  0.41851333  0.28851732     2.10000
Zr346      Zr  0.16093894  0.45177480  0.22936928     1.78800
O347        O  0.11984454  0.40236628  0.33084220    -0.92900
O348        O  0.17474160  0.46845274  0.18759412    -0.40800
O349        O  0.13996436  0.44733881  0.26600064    -0.77400
O350        O  0.13123963  0.44922978  0.21639456    -0.96100
O351        O  0.09277728  0.41716894  0.22225761    -0.89400
O352        O  0.10232235  0.41449415  0.27630641    -0.92200
C353        C  0.18589011  0.42897525  0.21127095     1.01500
C354        C  0.13949014  0.37954207  0.28451788     1.14500
C355        C  0.12187435  0.38855511  0.15596967     1.05200
O356        O  0.13141205  0.44029311  0.14612980    -0.94400
O357        O  0.10581450  0.44797838  0.17725201    -0.90100
O358        O  0.10119488  0.45801555  0.21755551    -0.83300
C359        C  0.10137440  0.45833162  0.19195734     1.11900
O360        O  0.07566312  0.35489322  0.24524909    -0.96300
Zr361      Zr  0.08585025  0.38888829  0.24587112     1.88900
O362        O  0.07461585  0.42934556  0.25688623    -0.73000
O363        O  0.08352931  0.40732772  0.16320211    -0.52300
O364        O  0.06098362  0.37096231  0.21294255    -0.96900
O365        O  0.07245815  0.37338120  0.28850206    -0.54200
O366        O  0.06126233  0.39701560  0.25428107    -0.73500
C367        C  0.06017645  0.41224350  0.25692575     0.98800
O368        O  0.12007233  0.47624901  0.26407002    -0.62300
O369        O  0.16410336  0.43642665  0.30939459    -0.57100
O370        O  0.10884462  0.44873958  0.30095068    -0.93800
O371        O  0.12685326  0.43753074  0.32011827    -0.92200
O372        O  0.18479162  0.46738537  0.26431565    -0.92600
O373        O  0.17278822  0.48604688  0.23155413    -0.91400
C374        C  0.11708696  0.44608064  0.32122132     1.17700
H375        H  0.16568754  0.42385770  0.25943119     0.33600
H376        H  0.13448151  0.46124305  0.20798401     0.44500
H377        H  0.09445116  0.41264512  0.29178391     0.38000
H378        H  0.09975226  0.38283462  0.19754316     0.34500
H379        H  0.18869491  0.47588889  0.19092701     0.26300
H380        H  0.08679758  0.40854143  0.14399241     0.32200
H381        H  0.05606021  0.37955144  0.20772645     0.38100
H382        H  0.19330721  0.46185765  0.26300746     0.32600
H383        H  0.16460706  0.44812600  0.31650401     0.31400
H384        H  0.13109901  0.40652801  0.34260812     0.33100
H385        H  0.06512081  0.37933911  0.29527941     0.32100
H386        H  0.16514609  0.48749478  0.24587772     0.36100
H387        H  0.13148602  0.48028671  0.27546854     0.28800
H388        H  0.14452027  0.36856184  0.20196660     0.33100
H389        H  0.06188248  0.34814447  0.24984984     0.35900
H390        H  0.16333202  0.42892307  0.32544941     0.28500
H391        H  0.12538977  0.48356732  0.24737422     0.41400
H392        H  0.14152023  0.45287600  0.15275627     0.31400
H393        H  0.17315908  0.45831386  0.17497465     0.39100
H394        H  0.08358334  0.37803825  0.30063465     0.30900
H395        H  0.07816662  0.39355898  0.16712561     0.31000
H396        H  0.12233722  0.35818734  0.20745462     0.31200
Zr397      Zr  0.13873911  0.75839903  0.72026804     2.17500
O398        O  0.14105638  0.78841939  0.70612523    -0.51100
O399        O  0.17272883  0.77673741  0.70987535    -0.74300
O400        O  0.14500522  0.78056150  0.75769668    -0.81100
O401        O  0.11300387  0.73323144  0.65497326    -0.82800
O402        O  0.14289316  0.76517454  0.79644483    -0.78500
O403        O  0.12575359  0.76145786  0.67735667    -0.90100
O404        O  0.18694921  0.75970869  0.72167492    -0.76100
O405        O  0.15335804  0.74842357  0.75291770    -0.85600
O406        O  0.14763127  0.73786256  0.69762383    -0.85200
O407        O  0.11464861  0.74281716  0.75416697    -0.72000
O408        O  0.10980358  0.73198337  0.70360429    -0.84100
Zr409      Zr  0.10767181  0.68499797  0.74900729     2.26400
Zr410      Zr  0.12927508  0.73191510  0.78602483     2.06300
Zr411      Zr  0.11842465  0.71107206  0.68179246     2.10000
Zr412      Zr  0.16131120  0.72722703  0.73088923     1.78800
O413        O  0.09601261  0.69600104  0.64509645    -0.92900
O414        O  0.18297026  0.73272084  0.76803354    -0.40800
O415        O  0.13202739  0.70042334  0.71536097    -0.77400
O416        O  0.13772464  0.71055257  0.76506505    -0.96100
O417        O  0.09959046  0.70629518  0.77023434    -0.89400
O418        O  0.09431798  0.69531174  0.71497737    -0.92200
C419        C  0.18761585  0.77508057  0.71330378     1.01500
C420        C  0.11677324  0.75067541  0.65728549     1.14500
C421        C  0.14674664  0.78021572  0.78320631     1.05200
O422        O  0.15635101  0.74134232  0.81596640    -0.94400
O423        O  0.12107224  0.70690307  0.81827007    -0.90100
O424        O  0.10398376  0.67830670  0.79696348    -0.83300
C425        C  0.11102569  0.68863740  0.81798710     1.11900
O426        O  0.07833277  0.74116582  0.72457941    -0.96300
Zr427      Zr  0.08585542  0.71631537  0.73648689     1.88900
O428        O  0.07268376  0.66425854  0.74920420    -0.73000
O429        O  0.10862126  0.73422992  0.81955957    -0.52300
O430        O  0.06866480  0.72003113  0.77386325    -0.96900
O431        O  0.06371035  0.70649273  0.69883231    -0.54200
O432        O  0.06046214  0.68426312  0.74671949    -0.73500
C433        C  0.05862094  0.66756789  0.74882013     0.98800
O434        O  0.11710157  0.66173784  0.76234368    -0.62300
O435        O  0.14395828  0.71698306  0.65061844    -0.57100
O436        O  0.10164354  0.66214024  0.71424914    -0.93800
O437        O  0.10846133  0.67727794  0.67414393    -0.92200
O438        O  0.17496148  0.72217192  0.69045903    -0.92600
O439        O  0.17485682  0.70621960  0.73351250    -0.91400
C440        C  0.10297856  0.66229536  0.68878959     1.17700
H441        H  0.15644718  0.74455434  0.68326962     0.33600
H442        H  0.14298212  0.70563310  0.77810739     0.44500
H443        H  0.08339405  0.68462866  0.70677234     0.38000
H444        H  0.11141136  0.75168723  0.76232080     0.34500
H445        H  0.19595880  0.74069733  0.76052168     0.26300
H446        H  0.11702289  0.74030040  0.83517059     0.32200
H447        H  0.07721987  0.73314263  0.78058821     0.38100
H448        H  0.18305649  0.73508384  0.68279413     0.32600
H449        H  0.13830195  0.70580722  0.63849093     0.31400
H450        H  0.10413956  0.69823332  0.62918134     0.33100
H451        H  0.06051410  0.69325042  0.69446147     0.32100
H452        H  0.16662895  0.69618270  0.74644994     0.36100
H453        H  0.12471787  0.66114744  0.74725619     0.28800
H454        H  0.15346724  0.79868553  0.71301842     0.33100
H455        H  0.06450668  0.73560219  0.72827328     0.35900
H456        H  0.14541020  0.72775898  0.63945439     0.28500
H457        H  0.12669300  0.66810719  0.77665458     0.41400
H458        H  0.15286933  0.74558939  0.83252158     0.31400
H459        H  0.18124993  0.74144009  0.78013154     0.39100
H460        H  0.07160813  0.71420915  0.68359477     0.30900
H461        H  0.10578428  0.74406501  0.81272513     0.31000
H462        H  0.13121636  0.78953625  0.71653185     0.31200
Zr463      Zr  0.07353107  0.81782252  0.44841103     2.17500
O464        O  0.10249809  0.81958990  0.46638731    -0.51100
O465        O  0.09204916  0.85186698  0.45863329    -0.74300
O466        O  0.09736297  0.82330464  0.41378097    -0.81100
O467        O  0.04681842  0.79627077  0.51410195    -0.82800
O468        O  0.08303276  0.81966091  0.37362226    -0.78500
O469        O  0.07502691  0.80624295  0.49262992    -0.90100
O470        O  0.07572555  0.86670003  0.44622912    -0.76100
O471        O  0.06551684  0.83251322  0.41358421    -0.85600
O472        O  0.05233648  0.82716595  0.46785022    -0.85200
O473        O  0.05892975  0.79326669  0.41488029    -0.72000
O474        O  0.04610830  0.78889353  0.46361075    -0.84100
Zr475      Zr  0.00145928  0.78862101  0.41370073     2.26400
Zr476      Zr  0.04982274  0.80801971  0.38088735     2.06300
Zr477      Zr  0.02475412  0.79821732  0.48255061     2.10000
Zr478      Zr  0.04411532  0.84150055  0.43239544     1.78800
O479        O  0.00914802  0.77362159  0.51650358    -0.92900
O480        O  0.05593580  0.86401902  0.39526616    -0.40800
O481        O  0.01627025  0.81286158  0.44775240    -0.77400
O482        O  0.02850439  0.81783752  0.39809139    -0.96100
O483        O  0.02256701  0.77918202  0.39525638    -0.89400
O484        O  0.00971745  0.77428620  0.44899394    -0.92200
C485        C  0.09069895  0.86695317  0.45545185     1.01500
C486        C  0.06406160  0.79931596  0.51307513     1.14500
C487        C  0.09751457  0.82351466  0.38810948     1.05200
O488        O  0.05957055  0.83472186  0.35022856    -0.94400
O489        O  0.02607917  0.79697963  0.34674211    -0.90100
O490        O  0.99663937  0.78566380  0.36526143    -0.83300
C491        C  0.00793483  0.78945283  0.34517758     1.11900
O492        O  0.05141907  0.75167561  0.44029390    -0.96300
Zr493      Zr  0.03082003  0.76491215  0.43009616     1.88900
O494        O  0.98036537  0.75401455  0.41005539    -0.73000
O495        O  0.05331579  0.78785603  0.34770030    -0.52300
O496        O  0.03576964  0.75017431  0.39071197    -0.96900
O497        O  0.02209872  0.74313867  0.46789480    -0.54200
O498        O  0.99849946  0.74019856  0.41843856    -0.73500
C499        C  0.98260011  0.73938805  0.41270236     0.98800
O500        O  0.97924132  0.79928208  0.40004631    -0.62300
O501        O  0.02665816  0.82274717  0.51278210    -0.57100
O502        O  0.97666922  0.78095941  0.44646279    -0.93800
O503        O  0.99047921  0.78718969  0.48747417    -0.92200
O504        O  0.03932743  0.85930832  0.46795562    -0.92600
O505        O  0.02100456  0.85100086  0.41910606    -0.91400
C506        C  0.97589888  0.78171129  0.47197138     1.17700
H507        H  0.05831201  0.83582456  0.48262214     0.33600
H508        H  0.02455172  0.82321599  0.38391048     0.44500
H509        H  0.99856706  0.76340620  0.45649677     0.38000
H510        H  0.06786907  0.78962518  0.40809529     0.34500
H511        H  0.06113157  0.87678540  0.40362869     0.26300
H512        H  0.06154039  0.79673744  0.33357297     0.32200
H513        H  0.02355761  0.74458091  0.38073662     0.38100
H514        H  0.04665762  0.85864862  0.48335686     0.32600
H515        H  0.01872183  0.82742910  0.50415562     0.31400
H516        H  0.00988281  0.78066931  0.53304373     0.33100
H517        H  0.01241567  0.73049280  0.46085454     0.32100
H518        H  0.00854922  0.84053151  0.42554743     0.36100
H519        H  0.97946935  0.80758402  0.41476712     0.28800
H520        H  0.11313730  0.83230796  0.46108671     0.33100
H521        H  0.06399256  0.76295914  0.44450246     0.35900
H522        H  0.01915153  0.81560323  0.52860661     0.28500
H523        H  0.98567761  0.80829147  0.38512965     0.41400
H524        H  0.06796997  0.83333150  0.33709419     0.31400
H525        H  0.06736053  0.86371626  0.38870436     0.39100
H526        H  0.01485790  0.74692644  0.47999960     0.30900
H527        H  0.06130383  0.78324394  0.35633194     0.31000
H528        H  0.10449205  0.81025530  0.45606219     0.31200
Zr529      Zr  0.83889532  0.60648700  0.78161953     2.17500
O530        O  0.83484571  0.63252858  0.79916168    -0.51100
O531        O  0.80526815  0.58993152  0.79359134    -0.74300
O532        O  0.83141901  0.62339011  0.74738657    -0.81100
O533        O  0.86491280  0.60559340  0.84551963    -0.82800
O534        O  0.83184071  0.61050908  0.70740101    -0.78500
O535        O  0.85186522  0.62131395  0.82460098    -0.90100
O536        O  0.79124673  0.55862341  0.78243083    -0.76100
O537        O  0.82327785  0.58229562  0.74878109    -0.85600
O538        O  0.83191554  0.57707039  0.80260957    -0.85200
O539        O  0.86159278  0.61616432  0.74551692    -0.72000
O540        O  0.86927178  0.61042894  0.79480899    -0.84100
Zr541      Zr  0.87012428  0.56593925  0.74544451     2.26400
Zr542      Zr  0.84606146  0.59091051  0.71357507     2.06300
Zr543      Zr  0.86231579  0.58079510  0.81501304     2.10000
Zr544      Zr  0.81709780  0.55313217  0.76903195     1.78800
O545        O  0.88975217  0.59090298  0.84440154    -0.92900
O546        O  0.79384383  0.53865098  0.73314707    -0.40800
O547        O  0.84740418  0.55667030  0.78154999    -0.77400
O548        O  0.83929245  0.56114089  0.73279150    -0.96100
O549        O  0.87669410  0.59534281  0.72530525    -0.89400
O550        O  0.88489064  0.58975769  0.77935241    -0.92200
C551        C  0.79058828  0.57319624  0.79136064     1.01500
C552        C  0.86065100  0.61896905  0.84435798     1.14500
C553        C  0.82879836  0.62169371  0.72203361     1.05200
O554        O  0.81808640  0.57195149  0.68580637    -0.94400
O555        O  0.85272505  0.57443581  0.67919797    -0.90100
O556        O  0.87057206  0.56248114  0.69661471    -0.83300
C557        C  0.86216561  0.56564708  0.67700717     1.11900
O558        O  0.89988620  0.65166401  0.77082265    -0.96300
Zr559      Zr  0.89149034  0.61906109  0.75888623     1.88900
O560        O  0.90478473  0.58079081  0.74044048    -0.73000
O561        O  0.86259444  0.61409097  0.67814477    -0.52300
O562        O  0.90466549  0.64011501  0.72038841    -0.96900
O563        O  0.91679201  0.63381745  0.79228583    -0.54200
O564        O  0.91637440  0.61284335  0.74337851    -0.73500
C565        C  0.91848962  0.59825089  0.73979286     0.98800
O566        O  0.86113176  0.53348379  0.73142279    -0.62300
O567        O  0.84089745  0.56171787  0.85092732    -0.57100
O568        O  0.87720263  0.54827526  0.77840948    -0.93800
O569        O  0.87111757  0.55591815  0.81952018    -0.92200
O570        O  0.80272008  0.53278917  0.80788488    -0.92600
O571        O  0.80743036  0.51964527  0.76180823    -0.91400
C572        C  0.87603066  0.54640787  0.80390192     1.17700
H573        H  0.82376706  0.57443158  0.81798156     0.33600
H574        H  0.83364865  0.55111723  0.71957880     0.44500
H575        H  0.89643493  0.59039581  0.78599913     0.38000
H576        H  0.86423769  0.62827904  0.73801258     0.34500
H577        H  0.78167403  0.52984637  0.74225654     0.26300
H578        H  0.87461440  0.61384134  0.67526670     0.32200
H579        H  0.91867078  0.64544728  0.72172658     0.38100
H580        H  0.78876414  0.52623899  0.80452421     0.32600
H581        H  0.84048860  0.54925855  0.84993402     0.31400
H582        H  0.88426063  0.58438146  0.86156513     0.33100
H583        H  0.92837429  0.63478563  0.78395873     0.32100
H584        H  0.81936916  0.51981386  0.75669647     0.36100
H585        H  0.85323176  0.52506805  0.74615346     0.28800
H586        H  0.82193359  0.62974126  0.79352957     0.33100
H587        H  0.91336489  0.65990711  0.76525329     0.35900
H588        H  0.84807026  0.56768743  0.86752007     0.28500
H589        H  0.85181011  0.53030064  0.71674607     0.41400
H590        H  0.81993886  0.58006088  0.66999902     0.31400
H591        H  0.79192847  0.54911030  0.72639208     0.39100
H592        H  0.91318557  0.62401997  0.80639115     0.30900
H593        H  0.85492025  0.60813036  0.66189454     0.31000
H594        H  0.84386339  0.64413376  0.78908707     0.31200
Zr595      Zr  0.90509071  0.73378155  0.04601416     2.17500
O596        O  0.87766299  0.70492513  0.02839333    -0.51100
O597        O  0.88695532  0.74938881  0.03515778    -0.74300
O598        O  0.88002437  0.71687918  0.07939167    -0.81100
O599        O  0.93302963  0.73617494  0.98329984    -0.82800
O600        O  0.89351386  0.72777827  0.11992197    -0.78500
O601        O  0.90317224  0.72185889  0.00117382    -0.90100
O602        O  0.90442939  0.78082434  0.04562437    -0.76100
O603        O  0.91319557  0.75688842  0.08022123    -0.85600
O604        O  0.92724045  0.76392866  0.02654250    -0.85200
O605        O  0.91809625  0.72313071  0.08073859    -0.72000
O606        O  0.93212286  0.73124890  0.03201646    -0.84100
Zr607      Zr  0.97666259  0.77440166  0.08360940     2.26400
Zr608      Zr  0.92733407  0.74726757  0.11414655     2.06300
Zr609      Zr  0.95462864  0.76158999  0.01359274     2.10000
Zr610      Zr  0.93563243  0.78678047  0.06136384     1.78800
O611        O  0.97162746  0.75345490  0.98069134    -0.92900
O612        O  0.92308528  0.79835838  0.09646922    -0.40800
O613        O  0.96317864  0.78455715  0.04858678    -0.77400
O614        O  0.94988720  0.77793725  0.09682392    -0.96100
O615        O  0.95403272  0.74411198  0.10139099    -0.89400
O616        O  0.96823818  0.75179568  0.04813582    -0.92200
C617        C  0.88904765  0.76616591  0.03713784     1.01500
C618        C  0.91501563  0.72388170  0.98264652     1.14500
C619        C  0.87914733  0.71760166  0.10492972     1.05200
O620        O  0.91728931  0.76298586  0.14658194    -0.94400
O621        O  0.95003462  0.76196210  0.14923658    -0.90100
O622        O  0.98016682  0.77579667  0.13264993    -0.83300
C623        C  0.96817099  0.77076094  0.15218267     1.11900
O624        O  0.92180262  0.68839474  0.05631449    -0.96300
Zr625      Zr  0.94563402  0.72149906  0.06638604     1.88900
O626        O  0.99659351  0.75927399  0.08655582    -0.73000
O627        O  0.92212306  0.72142443  0.14429288    -0.52300
O628        O  0.94177039  0.70138289  0.10486568    -0.96900
O629        O  0.95484063  0.70860916  0.02879791    -0.54200
O630        O  0.97711422  0.72754095  0.07802446    -0.73500
C631        C  0.99335888  0.74200188  0.08393092     0.98800
O632        O  0.99870153  0.80684495  0.09922112    -0.62300
O633        O  0.95104134  0.78152198  0.98026653    -0.57100
O634        O  0.00163738  0.79348526  0.05170937    -0.93800
O635        O  0.98849689  0.78667332  0.01024554    -0.92200
O636        O  0.94355020  0.80788863  0.02291010    -0.92600
O637        O  0.95737688  0.82005563  0.07347915    -0.91400
C638        C  0.00272822  0.79590846  0.02629767     1.17700
H639        H  0.92166791  0.76681045  0.01146116     0.33600
H640        H  0.95382305  0.78739087  0.11080485     0.44500
H641        H  0.97928661  0.75167164  0.04095258     0.38000
H642        H  0.90860097  0.71077132  0.08753016     0.34500
H643        H  0.91920643  0.80674051  0.08721625     0.26300
H644        H  0.93501288  0.72315194  0.14744408     0.32200
H645        H  0.92830061  0.69612807  0.11049816     0.38100
H646        H  0.95642857  0.81054702  0.01734526     0.32600
H647        H  0.96419119  0.79218079  0.97709492     0.31400
H648        H  0.97083491  0.75957056  0.96397902     0.33100
H649        H  0.96859737  0.71775732  0.02589002     0.32100
H650        H  0.96801779  0.81984473  0.08302141     0.36100
H651        H  0.99863172  0.81538462  0.08507206     0.28800
H652        H  0.86638878  0.70645106  0.03168476     0.33100
H653        H  0.92819347  0.68084566  0.05985953     0.35900
H654        H  0.94762287  0.77384955  0.96367506     0.28500
H655        H  0.99210530  0.80904104  0.11431274     0.41400
H656        H  0.91167991  0.75373305  0.16145898     0.31400
H657        H  0.91086145  0.78702714  0.10183374     0.39100
H658        H  0.94840997  0.71041535  0.01315367     0.30900
H659        H  0.91857810  0.72483286  0.16150839     0.31000
H660        H  0.87595440  0.69437652  0.04028211     0.31200
Zr661      Zr  0.05436142  0.58509175  0.11537684     2.17500
O662        O  0.02777147  0.55636721  0.13471661    -0.51100
O663        O  0.06989303  0.56724223  0.12875380    -0.74300
O664        O  0.03750349  0.56035676  0.08166032    -0.81100
O665        O  0.05527409  0.61340272  0.17785127    -0.82800
O666        O  0.05147744  0.57259450  0.04170062    -0.78500
O667        O  0.03845874  0.58489839  0.15657684    -0.90100
O668        O  0.10149977  0.58443766  0.11931519    -0.76100
O669        O  0.07828729  0.59288107  0.08252796    -0.85600
O670        O  0.08402150  0.60722319  0.13608574    -0.85200
O671        O  0.04470286  0.59761423  0.07868460    -0.72000
O672        O  0.05146317  0.61221029  0.12721330    -0.84100
Zr673      Zr  0.09604354  0.65628276  0.07799802     2.26400
Zr674      Zr  0.06989939  0.60672265  0.04675570     2.06300
Zr675      Zr  0.08107661  0.63458951  0.14759784     2.10000
Zr676      Zr  0.10773314  0.61539317  0.10225157     1.78800
O677        O  0.07024572  0.65158732  0.17649011    -0.92900
O678        O  0.11979412  0.60211893  0.06870911    -0.40800
O679        O  0.10510621  0.64288238  0.11415358    -0.77400
O680        O  0.09994896  0.62956487  0.06562393    -0.96100
O681        O  0.06654614  0.63360224  0.05811139    -0.89400
O682        O  0.07216506  0.64782167  0.11146547    -0.92200
C683        C  0.08663588  0.56914497  0.12746299     1.01500
C684        C  0.04096479  0.59624826  0.17605531     1.14500
C685        C  0.03989072  0.55878147  0.05663262     1.05200
O686        O  0.08713865  0.59589116  0.01839506    -0.94400
O687        O  0.08588447  0.62962587  0.01178159    -0.90100
O688        O  0.09850888  0.65960162  0.02910203    -0.83300
C689        C  0.09452019  0.64785815  0.00945227     1.11900
O690        O  0.00881320  0.60222824  0.09788129    -0.96300
Zr691      Zr  0.04264514  0.62532360  0.09103902     1.88900
O692        O  0.08149367  0.67655903  0.07364000    -0.73000
O693        O  0.04531646  0.60115991  0.01398597    -0.52300
O694        O  0.02447738  0.62068063  0.05010654    -0.96900
O695        O  0.02757903  0.63451715  0.12576749    -0.54200
O696        O  0.04932583  0.65677715  0.07728622    -0.73500
C697        C  0.06412493  0.67320716  0.07332069     0.98800
O698        O  0.12878812  0.67850953  0.06395574    -0.62300
O699        O  0.10201374  0.63285114  0.18116603    -0.57100
O700        O  0.11425044  0.68101663  0.11099712    -0.93800
O701        O  0.10544070  0.66849504  0.15261267    -0.92200
O702        O  0.13007362  0.62609205  0.13945396    -0.92600
O703        O  0.14107401  0.63563435  0.08919629    -0.91400
C704        C  0.11553593  0.68246315  0.13657290     1.17700
H705        H  0.08656467  0.60179175  0.15165058     0.33600
H706        H  0.10984897  0.63358648  0.05227722     0.44500
H707        H  0.07169618  0.65882933  0.11806726     0.38000
H708        H  0.03250270  0.58810798  0.07145157     0.34500
H709        H  0.12668197  0.59690007  0.07892502     0.26300
H710        H  0.04781528  0.59481495  0.99885799     0.32200
H711        H  0.03287699  0.63163719  0.03850033     0.38100
H712        H  0.13355727  0.61599935  0.14154231     0.32600
H713        H  0.11495381  0.64341865  0.17657796     0.31400
H714        H  0.07604748  0.65208821  0.19408634     0.33100
H715        H  0.03734002  0.64771116  0.13081585     0.32100
H716        H  0.14195943  0.64774802  0.08320618     0.36100
H717        H  0.13693480  0.67804085  0.07838264     0.28800
H718        H  0.03060085  0.54594648  0.13122901     0.33100
H719        H  0.00871315  0.59207677  0.10911904     0.35900
H720        H  0.09871135  0.63702158  0.19793081     0.28500
H721        H  0.13129751  0.67222695  0.04875699     0.41400
H722        H  0.08113874  0.59402437  0.00059740     0.31400
H723        H  0.10830405  0.59066723  0.06173839     0.39100
H724        H  0.02674759  0.62666144  0.14144214     0.30900
H725        H  0.03317464  0.59107147  0.02181800     0.31000
H726        H  0.01651908  0.55331441  0.12343920     0.31200
Zr727      Zr  0.92653506  0.52430835  0.38297597     2.17500
O728        O  0.95411018  0.52250842  0.36689067    -0.51100
O729        O  0.91110991  0.48998999  0.37275797    -0.74300
O730        O  0.94422063  0.51984236  0.41961916    -0.81100
O731        O  0.92673803  0.55157131  0.31926969    -0.82800
O732        O  0.92534958  0.51273806  0.45601687    -0.78500
O733        O  0.94229269  0.53841393  0.34049316    -0.90100
O734        O  0.87914953  0.47560394  0.37987042    -0.76100
O735        O  0.90096039  0.50722257  0.41335896    -0.85600
O736        O  0.89766386  0.51693565  0.35992784    -0.85200
O737        O  0.93384864  0.54618082  0.41978269    -0.72000
O738        O  0.92954165  0.55438674  0.37017624    -0.84100
Zr739      Zr  0.88240945  0.55239873  0.41661370     2.26400
Zr740      Zr  0.90750836  0.52880908  0.44945236     2.06300
Zr741      Zr  0.90036924  0.54703060  0.34806233     2.10000
Zr742      Zr  0.87231046  0.50076026  0.39128347     1.78800
O743        O  0.90949144  0.57296167  0.31618070    -0.92900
O744        O  0.85674324  0.47686123  0.42625726    -0.40800
O745        O  0.87500161  0.53080439  0.37950384    -0.77400
O746        O  0.87812574  0.52164235  0.42854006    -0.96100
O747        O  0.91133341  0.55927900  0.43830124    -0.89400
O748        O  0.90725237  0.56862543  0.38447413    -0.92200
C749        C  0.89428516  0.47507871  0.37361214     1.01500
C750        C  0.94022723  0.54747920  0.32080125     1.14500
C751        C  0.94002092  0.51432751  0.44401619     1.05200
O752        O  0.88782563  0.50103020  0.47729717    -0.94400
O753        O  0.89143141  0.53644226  0.48310602    -0.90100
O754        O  0.87793018  0.55274733  0.46515127    -0.83300
C755        C  0.88199698  0.54524905  0.48500756     1.11900
O756        O  0.96990028  0.58633267  0.39958658    -0.96300
Zr757      Zr  0.93612654  0.57580595  0.40658802     1.88900
O758        O  0.89632425  0.58686847  0.42181178    -0.73000
O759        O  0.93128429  0.54444777  0.48444635    -0.52300
O760        O  0.95520708  0.59066887  0.44638550    -0.96900
O761        O  0.94982533  0.59883742  0.37016541    -0.54200
O762        O  0.92870103  0.60010066  0.42084434    -0.73500
C763        C  0.91342368  0.60116420  0.42326716     0.98800
O764        O  0.84939473  0.54226613  0.42906736    -0.62300
O765        O  0.88079609  0.52444629  0.31355153    -0.57100
O766        O  0.86586362  0.56019808  0.38300631    -0.93800
O767        O  0.87695294  0.55771624  0.34237490    -0.92200
O768        O  0.85570243  0.48848417  0.34903546    -0.92600
O769        O  0.83823370  0.48957704  0.39524916    -0.91400
C770        C  0.86613759  0.56124642  0.35744516     1.17700
H771        H  0.89598973  0.50914968  0.34440625     0.33600
H772        H  0.86771163  0.51544313  0.44109646     0.44500
H773        H  0.90772004  0.58008930  0.37781572     0.38000
H774        H  0.94576956  0.54948908  0.42850708     0.34500
H775        H  0.84859775  0.46469994  0.41669485     0.26300
H776        H  0.93092843  0.55626753  0.48859686     0.32200
H777        H  0.94574617  0.58783975  0.46076869     0.38100
H778        H  0.85196825  0.47477910  0.34883783     0.32600
H779        H  0.87525771  0.53111376  0.30354032     0.31400
H780        H  0.90420328  0.56650394  0.29891161     0.33100
H781        H  0.94442457  0.60741827  0.37221671     0.32100
H782        H  0.83674363  0.50026767  0.38835089     0.36100
H783        H  0.84153083  0.53448035  0.41385846     0.28800
H784        H  0.95253329  0.51035039  0.37400096     0.33100
H785        H  0.97678621  0.60036594  0.40232886     0.35900
H786        H  0.89010960  0.52407643  0.30104190     0.28500
H787        H  0.84611053  0.53277144  0.44353846     0.41400
H788        H  0.89533002  0.50320014  0.49385883     0.31400
H789        H  0.86710483  0.47524239  0.43414030     0.39100
H790        H  0.94369266  0.59137946  0.35382242     0.30900
H791        H  0.92569052  0.53624581  0.50037145     0.31000
H792        H  0.96523054  0.53267687  0.37662914     0.31200
Zr793      Zr  0.74223328  0.61109046  0.27346491     2.17500
O794        O  0.77180663  0.64155008  0.27897426    -0.51100
O795        O  0.76194848  0.59734682  0.28563658    -0.74300
O796        O  0.74646347  0.62457725  0.31823400    -0.81100
O797        O  0.74973081  0.61467958  0.19797515    -0.82800
O798        O  0.71822893  0.60880325  0.34035624    -0.78500
O799        O  0.76445536  0.62788615  0.23729746    -0.90100
O800        O  0.74444512  0.56528200  0.28008693    -0.76100
O801        O  0.72124459  0.58293035  0.29788183    -0.85600
O802        O  0.73358567  0.58511817  0.24340093    -0.85200
O803        O  0.71576141  0.61538240  0.28605352    -0.72000
O804        O  0.72715598  0.61677465  0.23615868    -0.84100
Zr805      Zr  0.66975901  0.56667627  0.24270367     2.26400
Zr806      Zr  0.69423387  0.58641888  0.30945360     2.06300
Zr807      Zr  0.71742401  0.59009086  0.20702526     2.10000
Zr808      Zr  0.71222208  0.55721822  0.26736447     1.78800
O809        O  0.71792299  0.60808652  0.16770549    -0.92900
O810        O  0.70793856  0.54011743  0.30917723    -0.40800
O811        O  0.69585094  0.56178593  0.23058868    -0.77400
O812        O  0.68503179  0.56011176  0.27941612    -0.96100
O813        O  0.67917723  0.59261103  0.27280478    -0.89400
O814        O  0.69122114  0.59458692  0.21858652    -0.92200
C815        C  0.76003818  0.58058226  0.28597968     1.01500
C816        C  0.76409542  0.62673643  0.21174264     1.14500
C817        C  0.73594267  0.62180159  0.33888273     1.05200
O818        O  0.69355063  0.56795343  0.34827650    -0.94400
O819        O  0.66077761  0.56218091  0.31787466    -0.90100
O820        O  0.64629150  0.55168107  0.27760503    -0.83300
C821        C  0.64615091  0.55149604  0.30319811     1.11900
O822        O  0.72609960  0.65384967  0.24997302    -0.96300
Zr823      Zr  0.70064669  0.62050590  0.24854763     1.88900
O824        O  0.64893433  0.58082078  0.23903085    -0.73000
O825        O  0.67984654  0.60231385  0.33361837    -0.52300
O826        O  0.69293629  0.63801286  0.28120532    -0.96900
O827        O  0.70484281  0.63741033  0.20657709    -0.54200
O828        O  0.66824523  0.61316970  0.23887543    -0.73500
C829        C  0.65172807  0.59801237  0.23796707     0.98800
O830        O  0.64738671  0.53318820  0.23211766    -0.62300
O831        O  0.73168358  0.57398798  0.18301616    -0.57100
O832        O  0.66400159  0.56013423  0.19488651    -0.93800
O833        O  0.69291237  0.56818922  0.17690963    -0.92200
O834        O  0.72030421  0.54160778  0.23226609    -0.92600
O835        O  0.69159168  0.52265101  0.26500855    -0.91400
C836        C  0.67469840  0.56067251  0.17543365     1.17700
H837        H  0.74462987  0.58461815  0.23701375     0.33600
H838        H  0.67613298  0.54817151  0.28787490     0.44500
H839        H  0.68523757  0.59628251  0.20294513     0.38000
H840        H  0.71978592  0.62652553  0.29717797     0.34500
H841        H  0.71422936  0.53239377  0.30631712     0.26300
H842        H  0.67974695  0.59866313  0.35250227     0.32200
H843        H  0.68142115  0.62805956  0.29049919     0.38100
H844        H  0.73423401  0.54666656  0.23407877     0.32600
H845        H  0.72286571  0.56018393  0.18612800     0.31400
H846        H  0.72116139  0.60219664  0.15273715     0.33100
H847        H  0.69366717  0.62881613  0.19548212     0.32100
H848        H  0.67941804  0.52080323  0.25756220     0.36100
H849        H  0.65440883  0.52931599  0.21970887     0.28800
H850        H  0.77868517  0.63972964  0.29403793     0.33100
H851        H  0.71973273  0.66150746  0.24721632     0.35900
H852        H  0.72999287  0.57588707  0.16390748     0.28500
H853        H  0.64640445  0.52601669  0.24863245     0.41400
H854        H  0.69122349  0.55558877  0.34090924     0.31400
H855        H  0.71642001  0.55010183  0.32199929     0.39100
H856        H  0.71582354  0.63731797  0.19787811     0.30900
H857        H  0.68950346  0.61610426  0.33294275     0.31000
H858        H  0.76796723  0.65073634  0.28551482     0.31200
Zr859      Zr  0.79895804  0.72858229  0.55198196     2.17500
O860        O  0.79480671  0.69670708  0.54576139    -0.51100
O861        O  0.83273411  0.74153505  0.54055460    -0.74300
O862        O  0.79094305  0.71712726  0.50618261    -0.81100
O863        O  0.79932565  0.72184907  0.62754555    -0.82800
O864        O  0.77926092  0.73398072  0.48471799    -0.78500
O865        O  0.80257777  0.71011416  0.58792667    -0.90100
O866        O  0.84739505  0.77368302  0.54556433    -0.76100
O867        O  0.80774838  0.75778479  0.52902797    -0.85600
O868        O  0.81628643  0.75367490  0.58319757    -0.85200
O869        O  0.76924641  0.72651560  0.53840581    -0.72000
O870        O  0.77709692  0.72251224  0.58806356    -0.84100
Zr871      Zr  0.77258549  0.77471916  0.58474578     2.26400
Zr872      Zr  0.77842913  0.75654567  0.51672781     2.06300
Zr873      Zr  0.79434565  0.74825323  0.61853323     2.10000
Zr874      Zr  0.82437933  0.78264415  0.56061199     1.78800
O875        O  0.77774676  0.73103611  0.65871153    -0.92900
O876        O  0.83712595  0.80038116  0.51915148    -0.40800
O877        O  0.80290633  0.77781679  0.59702383    -0.77400
O878        O  0.79518640  0.78171763  0.54863333    -0.96100
O879        O  0.75632593  0.75011090  0.55252692    -0.89400
O880        O  0.76440084  0.74552499  0.60652429    -0.92200
C881        C  0.84763482  0.75832117  0.53978486     1.01500
C882        C  0.80198332  0.71010560  0.61357018     1.14500
C883        C  0.78383773  0.72078723  0.48558124     1.05200
O884        O  0.79994384  0.77707373  0.48190237    -0.94400
O885        O  0.77016053  0.78168305  0.50964660    -0.90100
O886        O  0.76682726  0.79228401  0.55029023    -0.83300
C887        C  0.76669807  0.79258229  0.52468974     1.11900
O888        O  0.73683965  0.68678378  0.57070682    -0.96300
Zr889      Zr  0.74787359  0.72088074  0.57461035     1.88900
O890        O  0.73754895  0.76132914  0.58782702    -0.73000
O891        O  0.74994383  0.74443587  0.48901129    -0.52300
O892        O  0.72392648  0.70507867  0.53978281    -0.96900
O893        O  0.73321804  0.70462591  0.61642882    -0.54200
O894        O  0.72330183  0.72914740  0.58177750    -0.73500
C895        C  0.72267952  0.74448918  0.58588215     0.98800
O896        O  0.78119022  0.80653296  0.60104589    -0.62300
O897        O  0.82527603  0.76368500  0.64090154    -0.57100
O898        O  0.77459118  0.78128902  0.63310018    -0.93800
O899        O  0.79179692  0.76875025  0.65090728    -0.92200
O900        O  0.85028641  0.79621247  0.59309733    -0.92600
O901        O  0.83874946  0.81715369  0.56586459    -0.91400
C902        C  0.78324052  0.77843812  0.65272106     1.17700
H903        H  0.82747027  0.75351966  0.58976538     0.33600
H904        H  0.79890639  0.79404555  0.54086666     0.44500
H905        H  0.75655117  0.74370067  0.62201873     0.38000
H906        H  0.76216161  0.71588352  0.52645466     0.34500
H907        H  0.85119943  0.80700315  0.52135191     0.26300
H908        H  0.75475117  0.75048499  0.47138333     0.32200
H909        H  0.72404027  0.71564421  0.52956751     0.38100
H910        H  0.86206659  0.80357486  0.58237031     0.32600
H911        H  0.82860464  0.77721110  0.64297457     0.31400
H912        H  0.78797096  0.73445634  0.67211046     0.33100
H913        H  0.72678115  0.71135428  0.62377705     0.32100
H914        H  0.82962953  0.81879304  0.57723031     0.36100
H915        H  0.78831812  0.81549546  0.58636327     0.28800
H916        H  0.80418163  0.69812164  0.53191208     0.33100
H917        H  0.72343884  0.68014430  0.57712206     0.35900
H918        H  0.82251015  0.75845442  0.65925392     0.28500
H919        H  0.76894797  0.80656379  0.60222144     0.41400
H920        H  0.79418188  0.77027637  0.46500376     0.31400
H921        H  0.83443460  0.79050192  0.50546645     0.39100
H922        H  0.74408658  0.70800527  0.62865173     0.30900
H923        H  0.74563386  0.73072751  0.48615693     0.31000
H924        H  0.78209181  0.68892627  0.53736435     0.31200
Zr925      Zr  0.71855390  0.81902591  0.94992314     2.17500
O926        O  0.68779079  0.81694013  0.95845214    -0.51100
O927        O  0.73419746  0.85324282  0.96081305    -0.74300
O928        O  0.70859620  0.81221986  0.99637518    -0.81100
O929        O  0.70926266  0.81884640  0.87591836    -0.82800
O930        O  0.72222427  0.79644131  0.01556280    -0.78500
O931        O  0.69951189  0.82381701  0.91611802    -0.90100
O932        O  0.76594693  0.86726537  0.95232366    -0.76100
O933        O  0.74780132  0.82633411  0.97131260    -0.85600
O934        O  0.74278675  0.83515454  0.91739692    -0.85200
O935        O  0.71472465  0.78838109  0.96241001    -0.72000
O936        O  0.71045687  0.79648398  0.91400914    -0.84100
Zr937      Zr  0.76170241  0.79015265  0.91354424     2.26400
Zr938      Zr  0.74464892  0.79605229  0.98311616     2.06300
Zr939      Zr  0.73520508  0.81279410  0.88199190     2.10000
Zr940      Zr  0.77196354  0.84202325  0.93829011     1.78800
O941        O  0.71613544  0.79674477  0.84269232    -0.92900
O942        O  0.79050405  0.85448264  0.97918128    -0.40800
O943        O  0.76518429  0.82055585  0.90135378    -0.77400
O944        O  0.76926338  0.81220741  0.95030893    -0.96100
O945        O  0.73760977  0.77428135  0.94678570    -0.89400
O946        O  0.73217106  0.78267564  0.89329982    -0.92200
C947        C  0.75114093  0.86796079  0.95993801     1.01500
C948        C  0.69845325  0.82243154  0.89055080     1.14500
C949        C  0.71057596  0.80298020  0.01582478     1.05200
O950        O  0.76445898  0.81592403  0.01969455    -0.94400
O951        O  0.76962874  0.78751735  0.98886466    -0.90100
O952        O  0.77874791  0.78326141  0.94757371    -0.83300
C953        C  0.77988749  0.78361700  0.97316160     1.11900
O954        O  0.67386645  0.75477515  0.92505159    -0.96300
Zr955      Zr  0.70823046  0.76670085  0.92621720     1.88900
O956        O  0.74809811  0.75528196  0.90933936    -0.73000
O957        O  0.73150735  0.76671839  0.00934469    -0.52300
O958        O  0.69094527  0.74524635  0.96308636    -0.96900
O959        O  0.69260282  0.75000734  0.88503892    -0.54200
O960        O  0.71740349  0.74233059  0.92381084    -0.73500
C961        C  0.73192288  0.74095210  0.91655678     0.98800
O962        O  0.79498272  0.80132325  0.90128219    -0.62300
O963        O  0.75125792  0.84378814  0.85984328    -0.57100
O964        O  0.76697947  0.79168935  0.86464636    -0.93800
O965        O  0.75292870  0.80777154  0.84778893    -0.92200
O966        O  0.78674418  0.86661887  0.90410518    -0.92600
O967        O  0.80560210  0.85168787  0.93289319    -0.91400
C968        C  0.76296153  0.79963694  0.84519658     1.17700
H969        H  0.74299148  0.84657400  0.91109416     0.33600
H970        H  0.78160276  0.81556682  0.95766547     0.44500
H971        H  0.72985188  0.77477753  0.87771224     0.38000
H972        H  0.70401649  0.78172164  0.97437132     0.34500
H973        H  0.79789221  0.86852177  0.97661032     0.26300
H974        H  0.73560122  0.77104341  0.02789571     0.32200
H975        H  0.69944024  0.74051891  0.96952512     0.38100
H976        H  0.77791186  0.87169160  0.90165713     0.32600
H977        H  0.76464673  0.84670122  0.85765920     0.31400
H978        H  0.72025338  0.80687530  0.82896481     0.33100
H979        H  0.69990522  0.74386554  0.87880876     0.32100
H980        H  0.80591416  0.84443465  0.91714439     0.36100
H981        H  0.79828812  0.81155940  0.88793381     0.28800
H982        H  0.69027543  0.82671483  0.97222721     0.33100
H983        H  0.66773327  0.74067018  0.92370555     0.35900
H984        H  0.74597724  0.84120736  0.84152344     0.28500
H985        H  0.80265130  0.80836442  0.91706727     0.41400
H986        H  0.76009008  0.80738089  0.03545140     0.31400
H987        H  0.78101104  0.85255957  0.99312614     0.39100
H988        H  0.69543851  0.76021454  0.87183234     0.30900
H989        H  0.71750779  0.76159057  0.00947143     0.31000
H990        H  0.67976132  0.80446027  0.96734781     0.31200
Zr991      Zr  0.59752432  0.75806864  0.21957154     2.17500
O992        O  0.62913623  0.78584802  0.21216650    -0.51100
O993        O  0.58406544  0.77761421  0.20442075    -0.74300
O994        O  0.60880744  0.76067211  0.17376124    -0.81100
O995        O  0.60008703  0.76780468  0.29510625    -0.82800
O996        O  0.59423495  0.73143142  0.15391802    -0.78500
O997        O  0.61452806  0.78101137  0.25561429    -0.90100
O998        O  0.55192366  0.76035192  0.21038376    -0.76100
O999        O  0.56928906  0.73619434  0.19599418    -0.85600
O1000       O  0.57141098  0.75037764  0.24888908    -0.85200
O1001       O  0.60134163  0.73095953  0.20907347    -0.72000
O1002       O  0.60318849  0.74396652  0.25812630    -0.84100
Zr1003     Zr  0.55186358  0.68635537  0.25355957     2.26400
Zr1004     Zr  0.57230749  0.70869092  0.18626006     2.06300
Zr1005     Zr  0.57623827  0.73521442  0.28651649     2.10000
Zr1006     Zr  0.54337554  0.72841835  0.22549962     1.78800
O1007       O  0.59329343  0.73777672  0.32778987    -0.92900
O1008       O  0.52757974  0.72315006  0.18237374    -0.40800
O1009       O  0.54770467  0.71319322  0.26389388    -0.77400
O1010       O  0.54584061  0.70074835  0.21539374    -0.96100
O1011       O  0.57814165  0.69464864  0.22433307    -0.89400
O1012       O  0.58007082  0.70830751  0.27701453    -0.92200
C1013       C  0.56727142  0.77567217  0.20359337     1.01500
C1014       C  0.61275726  0.78154211  0.28112022     1.14500
C1015       C  0.60622116  0.74947689  0.15399578     1.05200
O1016       O  0.55546793  0.70739711  0.14530450    -0.94400
O1017       O  0.54718905  0.67531042  0.17856992    -0.90100
O1018       O  0.53627545  0.66193733  0.21936599    -0.83300
C1019       C  0.53619619  0.66108588  0.19373826     1.11900
O1020       O  0.64039984  0.74006163  0.24617458    -0.96300
Zr1021     Zr  0.60623141  0.71664959  0.24793452     1.88900
O1022       O  0.56493570  0.66488911  0.25900694    -0.73000
O1023       O  0.58917140  0.69343468  0.16742975    -0.52300
O1024       O  0.62608374  0.70931774  0.21914663    -0.96900
O1025       O  0.62116069  0.72092915  0.29165771    -0.54200
O1026       O  0.59732918  0.68369385  0.25722957    -0.73500
C1027       C  0.58199763  0.66738913  0.25939829     0.98800
O1028       O  0.51837390  0.66462781  0.26489209    -0.62300
O1029       O  0.55728683  0.74812032  0.30575990    -0.57100
O1030       O  0.54532730  0.68216472  0.30165547    -0.93800
O1031       O  0.55697722  0.71187318  0.31937864    -0.92200
O1032       O  0.52704287  0.73893200  0.25624765    -0.92600
O1033       O  0.50936500  0.70534217  0.22978467    -0.91400
C1034       C  0.54800138  0.69361258  0.32123274     1.17700
H1035       H  0.57099568  0.76165622  0.25438032     0.33600
H1036       H  0.53389133  0.69179387  0.20701762     0.44500
H1037       H  0.58158724  0.70267919  0.29316072     0.38000
H1038       H  0.61239430  0.73474073  0.19785022     0.34500
H1039       H  0.51976208  0.72944576  0.18387799     0.26300
H1040       H  0.58553424  0.69161156  0.14834435     0.32200
H1041       H  0.61691524  0.69796149  0.20880409     0.38100
H1042       H  0.52450415  0.74787821  0.24587380     0.32600
H1043       H  0.54421650  0.73697461  0.30737796     0.31400
H1044       H  0.59051388  0.74592077  0.33962902     0.33100
H1045       H  0.61292354  0.70903482  0.30170374     0.32100
H1046       H  0.50882153  0.69518936  0.24149303     0.36100
H1047       H  0.51444981  0.67249937  0.27540918     0.28800
H1048       H  0.62751636  0.79325850  0.19765939     0.33100
H1049       H  0.64704665  0.73401428  0.25500700     0.35900
H1050       H  0.56188104  0.75135480  0.32437946     0.28500
H1051       H  0.51117240  0.66226360  0.24800323     0.41400
H1052       H  0.54228572  0.70349946  0.15109489     0.31400
H1053       H  0.53790814  0.73129981  0.16974179     0.39100
H1054       H  0.61936296  0.73088763  0.30053820     0.30900
H1055       H  0.60280722  0.70355694  0.16747377     0.31000
H1056       H  0.63705011  0.78082521  0.20439583     0.31200
Zr1057     Zr  0.50582314  0.58420268  0.61200449     2.17500
O1058       O  0.50625538  0.55434298  0.61835597    -0.51100
O1059       O  0.47236328  0.56519853  0.62573021    -0.74300
O1060       O  0.51563824  0.58050506  0.65632794    -0.81100
O1061       O  0.50447564  0.57746018  0.53661862    -0.82800
O1062       O  0.52971463  0.60902527  0.67807254    -0.78500
O1063       O  0.50147753  0.56200169  0.57559452    -0.90100
O1064       O  0.45813393  0.58330428  0.62345418    -0.76100
O1065       O  0.49923169  0.60562241  0.63681673    -0.85600
O1066       O  0.48756937  0.59252676  0.58337310    -0.85200
O1067       O  0.53678509  0.61097546  0.62369561    -0.72000
O1068       O  0.52617264  0.59925881  0.57429439    -0.84100
Zr1069     Zr  0.53305363  0.65697277  0.58069847     2.26400
Zr1070     Zr  0.52981785  0.63278094  0.64764544     2.06300
Zr1071     Zr  0.50798982  0.60827021  0.54656668     2.10000
Zr1072     Zr  0.48194921  0.61472644  0.60735465     1.78800
O1073       O  0.51247138  0.60163291  0.50053563    -0.92900
O1074       O  0.47307393  0.62364114  0.64917158    -0.40800
O1075       O  0.50196922  0.63051645  0.56956353    -0.77400
O1076       O  0.51218794  0.64195553  0.61848348    -0.96100
O1077       O  0.55014494  0.64770955  0.61012864    -0.89400
O1078       O  0.53890889  0.63490803  0.55669103    -0.92200
C1079       C  0.45777265  0.56750774  0.62833911     1.01500
C1080       C  0.50191117  0.56281673  0.54993148     1.14500
C1081       C  0.52421815  0.59107719  0.67654070     1.05200
O1082       O  0.51212869  0.63346426  0.68660344    -0.94400
O1083       O  0.54015371  0.66680995  0.65541824    -0.90100
O1084       O  0.54248548  0.68115491  0.61534564    -0.83300
C1085       C  0.54378083  0.68149350  0.64093068     1.11900
O1086       O  0.56480182  0.60104248  0.58385899    -0.96300
Zr1087     Zr  0.55642039  0.62619311  0.58571274     1.88900
O1088       O  0.56782696  0.67804583  0.57584485    -0.73000
O1089       O  0.55998729  0.64777626  0.67192837    -0.52300
O1090       O  0.58166372  0.63343729  0.61817660    -0.96900
O1091       O  0.56934782  0.62418543  0.54259354    -0.54200
O1092       O  0.58110052  0.65891013  0.57696160    -0.73500
C1093       C  0.58227159  0.67531874  0.57514509     0.98800
O1094       O  0.52173209  0.67926360  0.57040443    -0.62300
O1095       O  0.47485269  0.59652518  0.53360874    -0.57100
O1096       O  0.53189377  0.66218396  0.53248426    -0.93800
O1097       O  0.51526782  0.63258567  0.51407783    -0.92200
O1098       O  0.45421213  0.60388547  0.57828396    -0.92600
O1099       O  0.46984580  0.63635721  0.59768096    -0.91400
C1100       C  0.52409710  0.65080402  0.51249262     1.17700
H1101       H  0.47587475  0.58134194  0.57777846     0.33600
H1102       H  0.50943577  0.65097908  0.62725864     0.44500
H1103       H  0.54639029  0.64062031  0.54082062     0.38000
H1104       H  0.54416813  0.60700943  0.63436760     0.34500
H1105       H  0.45950471  0.62006867  0.64682150     0.26300
H1106       H  0.55626802  0.64628584  0.69098294     0.32200
H1107       H  0.58440364  0.64574936  0.62628420     0.38100
H1108       H  0.44293539  0.59706313  0.59008313     0.32600
H1109       H  0.47548573  0.60591888  0.52033885     0.31400
H1110       H  0.49972338  0.59638808  0.49210219     0.33100
H1111       H  0.57685546  0.63750618  0.53604034     0.32100
H1112       H  0.48098947  0.64795432  0.59031680     0.36100
H1113       H  0.51100958  0.67234530  0.55774042     0.28800
H1114       H  0.49797097  0.54789184  0.63394085     0.33100
H1115       H  0.57893737  0.60774248  0.58277770     0.35900
H1116       H  0.47123983  0.58479422  0.52313894     0.28500
H1117       H  0.51538408  0.68000729  0.58690737     0.41400
H1118       H  0.50642194  0.64131730  0.68108742     0.31400
H1119       H  0.47271877  0.61434790  0.66238745     0.39100
H1120       H  0.55811513  0.61805375  0.53058800     0.30900
H1121       H  0.56525979  0.63912767  0.66931748     0.31000
H1122       H  0.51939187  0.55803293  0.62415962     0.31200
Zr1123     Zr  0.56819027  0.52742398  0.88211310     2.17500
O1124       O  0.54162659  0.53282462  0.87174919    -0.51100
O1125       O  0.54654437  0.49345001  0.87345489    -0.74300
O1126       O  0.56526744  0.53263786  0.83524438    -0.81100
O1127       O  0.56069066  0.53078711  0.95607756    -0.82800
O1128       O  0.59385873  0.54387969  0.81436565    -0.78500
O1129       O  0.54572683  0.52602219  0.91616011    -0.90100
O1130       O  0.56290130  0.47776860  0.88041119    -0.76100
O1131       O  0.58809101  0.51678243  0.86179695    -0.85600
O1132       O  0.57466782  0.51079411  0.91599466    -0.85200
O1133       O  0.59641891  0.55607278  0.86700893    -0.72000
O1134       O  0.58440497  0.55074347  0.91636247    -0.84100
Zr1135     Zr  0.63973253  0.55206161  0.91713303     2.26400
Zr1136     Zr  0.61669261  0.54511877  0.84785566     2.06300
Zr1137     Zr  0.59152365  0.53414199  0.94965381     2.10000
Zr1138     Zr  0.59483972  0.50062020  0.89609690     1.78800
O1139       O  0.59222562  0.55379887  0.98701878    -0.92900
O1140       O  0.59943683  0.48397994  0.85876589    -0.40800
O1141       O  0.61150738  0.52332653  0.93096791    -0.77400
O1142       O  0.62360300  0.52864630  0.88215996    -0.96100
O1143       O  0.63287510  0.56802860  0.88248987    -0.89400
O1144       O  0.61974476  0.56266875  0.93633373    -0.92200
C1145       C  0.54771797  0.47813416  0.87372608     1.01500
C1146       C  0.54645725  0.52794901  0.94168831     1.14500
C1147       C  0.57605415  0.53915711  0.81465114     1.05200
O1148       O  0.61670324  0.52379450  0.81346923    -0.94400
O1149       O  0.64980962  0.55185592  0.84225899    -0.90100
O1150       O  0.66313974  0.55644584  0.88343854    -0.83300
C1151       C  0.66389978  0.55545739  0.85795327     1.11900
O1152       O  0.59107145  0.59129895  0.90135706    -0.96300
Zr1153     Zr  0.61292632  0.57861263  0.90182470     1.88900
O1154       O  0.66256871  0.58677313  0.92061890    -0.73000
O1155       O  0.63388222  0.57343381  0.81997698    -0.52300
O1156       O  0.61941275  0.60030272  0.86429813    -0.96900
O1157       O  0.61468017  0.59671630  0.94173381    -0.54200
O1158       O  0.64678256  0.60138389  0.90440089    -0.73500
C1159       C  0.66200072  0.60166794  0.91247495     0.98800
O1160       O  0.66077208  0.54092507  0.93469698    -0.62300
O1161       O  0.57429490  0.50446613  0.97477027    -0.57100
O1162       O  0.64313220  0.54925825  0.96560634    -0.93800
O1163       O  0.61324155  0.53539027  0.98314168    -0.92200
O1164       O  0.58201377  0.47675879  0.93152804    -0.92600
O1165       O  0.61556778  0.48755880  0.90655689    -0.91400
C1166       C  0.63123296  0.54187660  0.98517691     1.17700
H1167       H  0.56305027  0.50018295  0.92300185     0.33600
H1168       H  0.63190602  0.52422208  0.87529674     0.44500
H1169       H  0.62598731  0.57091652  0.95139775     0.38000
H1170       H  0.59314748  0.56283838  0.85408311     0.34500
H1171       H  0.59039261  0.47024585  0.86213228     0.26300
H1172       H  0.63319993  0.56835272  0.80177782     0.32200
H1173       H  0.63168162  0.60247907  0.85674364     0.38100
H1174       H  0.57634010  0.46428991  0.92217561     0.32600
H1175       H  0.58318331  0.49935243  0.97557324     0.31400
H1176       H  0.58357442  0.54457130  0.00051751     0.33100
H1177       H  0.62778492  0.60173062  0.94880302     0.32100
H1178       H  0.62851851  0.49887580  0.90821493     0.36100
H1179       H  0.65223593  0.52702352  0.93754386     0.28800
H1180       H  0.53334058  0.52262396  0.85903613     0.33100
H1181       H  0.59925571  0.60538347  0.90025213     0.35900
H1182       H  0.57388666  0.50855057  0.99326804     0.28500
H1183       H  0.66946630  0.54163095  0.92028095     0.41400
H1184       H  0.60303589  0.51514431  0.80922787     0.31400
H1185       H  0.59400170  0.48714813  0.84318122     0.39100
H1186       H  0.60626316  0.58695588  0.95486199     0.30900
H1187       H  0.62555760  0.57920154  0.81929994     0.31000
H1188       H  0.54709634  0.54490501  0.86145214     0.31200
Zr1189     Zr  0.47447510  0.42417807  0.38208312     2.17500
O1190       O  0.47623677  0.45314490  0.36409987    -0.51100
O1191       O  0.50766290  0.44216643  0.36892700    -0.74300
O1192       O  0.47993824  0.44778136  0.41690639    -0.81100
O1193       O  0.44929163  0.39623424  0.31817372    -0.82800
O1194       O  0.48325541  0.43618607  0.45651014    -0.78500
O1195       O  0.46130820  0.42502541  0.33883176    -0.90100
O1196       O  0.52286956  0.42605591  0.38045589    -0.76100
O1197       O  0.49066497  0.41665312  0.41534425    -0.85600
O1198       O  0.48306548  0.40269133  0.36161730    -0.85200
O1199       O  0.45179366  0.41072311  0.41793796    -0.72000
O1200       O  0.44509735  0.39695858  0.36856441    -0.84100
Zr1201     Zr  0.44585413  0.35308312  0.41870857     2.26400
Zr1202     Zr  0.46792094  0.40215530  0.45050996     2.06300
Zr1203     Zr  0.45351857  0.37515004  0.34885916     2.10000
Zr1204     Zr  0.49835723  0.39454118  0.39570862     1.78800
O1205       O  0.42635946  0.35821089  0.31895728    -0.92900
O1206       O  0.52311158  0.40641437  0.43001752    -0.40800
O1207       O  0.46879356  0.36694803  0.38304758    -0.77400
O1208       O  0.47608918  0.37986343  0.43202992    -0.96100
O1209       O  0.43807778  0.37521296  0.43800428    -0.89400
O1210       O  0.43094771  0.36128683  0.38405922    -0.92200
C1211       C  0.52275189  0.44081457  0.37106882     1.01500
C1212       C  0.45302916  0.41370378  0.31909423     1.14500
C1213       C  0.48391674  0.44951852  0.44196273     1.05200
O1214       O  0.49510285  0.41109470  0.47992817    -0.94400
O1215       O  0.45751749  0.37878204  0.48545756    -0.90100
O1216       O  0.44268255  0.34894404  0.46731833    -0.83300
C1217       C  0.44827841  0.36053226  0.48731263     1.11900
O1218       O  0.41350012  0.40756648  0.40027550    -0.96300
Zr1219     Zr  0.42273223  0.38305421  0.40407947     1.88900
O1220       O  0.41113196  0.33194421  0.42138037    -0.73000
O1221       O  0.44989227  0.40872303  0.48386543    -0.52300
O1222       O  0.40770126  0.38414820  0.44571843    -0.96900
O1223       O  0.40021681  0.37750462  0.36813214    -0.54200
O1224       O  0.39780748  0.35018246  0.41052227    -0.73500
C1225       C  0.39670957  0.33418972  0.41644728     0.98800
O1226       O  0.45713870  0.33179321  0.43431100    -0.62300
O1227       O  0.47540498  0.37779841  0.31340711    -0.57100
O1228       O  0.43968753  0.32813709  0.38675053    -0.93800
O1229       O  0.44572239  0.34157240  0.34541864    -0.92200
O1230       O  0.51171017  0.38687975  0.35716130    -0.92600
O1231       O  0.50964499  0.37201937  0.40362951    -0.91400
C1232       C  0.44100062  0.32729957  0.36131299     1.17700
H1233       H  0.49120654  0.40834678  0.34626484     0.33600
H1234       H  0.48177293  0.37582331  0.44565189     0.44500
H1235       H  0.42002925  0.35022470  0.37651865     0.38000
H1236       H  0.44850342  0.41977808  0.42523906     0.34500
H1237       H  0.52758182  0.42026134  0.43149425     0.26300
H1238       H  0.45831463  0.41328941  0.49973759     0.32200
H1239       H  0.39386028  0.37785511  0.44164957     0.38100
H1240       H  0.51790192  0.39871084  0.34631888     0.32600
H1241       H  0.48182434  0.37094527  0.32033838     0.31400
H1242       H  0.43187681  0.35657847  0.30218916     0.33100
H1243       H  0.40315700  0.37051860  0.35439875     0.32100
H1244       H  0.50171954  0.36394731  0.41859689     0.36100
H1245       H  0.46566844  0.33198168  0.41995452     0.28800
H1246       H  0.48812514  0.46398777  0.37135849     0.33100
H1247       H  0.40016340  0.40163231  0.40681987     0.35900
H1248       H  0.46703978  0.36948077  0.29893351     0.28500
H1249       H  0.46601213  0.33873777  0.44916200     0.41400
H1250       H  0.49216443  0.41616587  0.49614443     0.31400
H1251       H  0.51622211  0.40091802  0.44694062     0.39100
H1252       H  0.38754201  0.36792686  0.37521907     0.30900
H1253       H  0.44946041  0.42009435  0.47737210     0.31000
H1254       H  0.46570916  0.45408106  0.37281669     0.31200
Zr1255     Zr  0.40964678  0.48674334  0.11576507     2.17500
O1256       O  0.43735767  0.48349615  0.12689352    -0.51100
O1257       O  0.42821367  0.51985281  0.13007271    -0.74300
O1258       O  0.43336574  0.49728225  0.07969056    -0.81100
O1259       O  0.38450082  0.46238306  0.18107508    -0.82800
O1260       O  0.41870458  0.49678861  0.04088784    -0.78500
O1261       O  0.41266799  0.47461868  0.15871887    -0.90100
O1262       O  0.41170595  0.53499743  0.12020390    -0.76100
O1263       O  0.40079094  0.50341660  0.08526580    -0.85600
O1264       O  0.38844859  0.49423680  0.13925139    -0.85200
O1265       O  0.39492906  0.46487896  0.07947679    -0.72000
O1266       O  0.38288553  0.45658847  0.12873385    -0.84100
Zr1267     Zr  0.33721548  0.45900230  0.08345026     2.26400
Zr1268     Zr  0.38525543  0.48157313  0.04962765     2.06300
Zr1269     Zr  0.36141207  0.46415501  0.15146091     2.10000
Zr1270     Zr  0.37936198  0.51057073  0.10806139     1.78800
O1271       O  0.34514662  0.43439050  0.17654555    -0.92900
O1272       O  0.38864176  0.53527192  0.07406956    -0.40800
O1273       O  0.35222218  0.48060523  0.12037301    -0.77400
O1274       O  0.36365454  0.48954280  0.07089886    -0.96100
O1275       O  0.35857093  0.45154003  0.06131310    -0.89400
O1276       O  0.34615965  0.44273108  0.11510778    -0.92200
C1277       C  0.42679755  0.53497452  0.12835160     1.01500
C1278       C  0.40200603  0.46634472  0.17904456     1.14500
C1279       C  0.43350590  0.50045675  0.05450655     1.05200
O1280       O  0.39383402  0.51005149  0.02318256    -0.94400
O1281       O  0.36161558  0.47309595  0.01570140    -0.90100
O1282       O  0.33212212  0.45803668  0.03464246    -0.83300
C1283       C  0.34337920  0.46445809  0.01422785     1.11900
O1284       O  0.39015555  0.42369382  0.09523904    -0.96300
Zr1285     Zr  0.36741743  0.43522346  0.09231592     1.88900
O1286       O  0.31608653  0.42474578  0.07731038    -0.73000
O1287       O  0.39052513  0.46286408  0.01592094    -0.52300
O1288       O  0.37190967  0.42303878  0.05007820    -0.96900
O1289       O  0.35797414  0.41048882  0.12638012    -0.54200
O1290       O  0.33515751  0.41140691  0.07917661    -0.73500
C1291       C  0.31887003  0.41040978  0.07609765     0.98800
O1292       O  0.31434764  0.46938803  0.07242965    -0.62300
O1293       O  0.36298210  0.48371093  0.18945303    -0.57100
O1294       O  0.31386593  0.45127886  0.11855438    -0.93800
O1295       O  0.32803961  0.45533998  0.15912608    -0.92200
O1296       O  0.37531603  0.52463342  0.14883577    -0.92600
O1297       O  0.35557547  0.52075394  0.10640525    -0.91400
C1298       C  0.31345450  0.45106704  0.14417492     1.17700
H1299       H  0.39452861  0.50183602  0.15489546     0.33600
H1300       H  0.35941757  0.49574146  0.05836798     0.44500
H1301       H  0.33514647  0.43133567  0.12182921     0.38000
H1302       H  0.40412807  0.46219145  0.07108720     0.34500
H1303       H  0.39213691  0.54711999  0.08419081     0.26300
H1304       H  0.39697290  0.47186495  0.00100606     0.32200
H1305       H  0.36183230  0.42243292  0.03816486     0.38100
H1306       H  0.38486259  0.52496753  0.16155070     0.32600
H1307       H  0.35550636  0.48981253  0.18385817     0.31400
H1308       H  0.34651356  0.43839113  0.19546289     0.33100
H1309       H  0.34418133  0.40563941  0.12947021     0.32100
H1310       H  0.34503085  0.51086740  0.09552755     0.36100
H1311       H  0.31547599  0.47806929  0.08716549     0.28800
H1312       H  0.44867388  0.49637163  0.12445525     0.33100
H1313       H  0.38274304  0.40987332  0.09095423     0.35900
H1314       H  0.35500261  0.47436708  0.20330727     0.28500
H1315       H  0.31985506  0.47800847  0.05688134     0.41400
H1316       H  0.39654694  0.50697908  0.00515375     0.31400
H1317       H  0.40096228  0.53723413  0.06700918     0.39100
H1318       H  0.36426609  0.41753842  0.14292259     0.30900
H1319       H  0.40042202  0.46034385  0.02337855     0.31000
H1320       H  0.43827500  0.47552935  0.11256699     0.31200
Zr1321     Zr  0.17789219  0.27759022  0.45584040     2.17500
O1322       O  0.18125573  0.30740462  0.47319875    -0.51100
O1323       O  0.14398786  0.26249233  0.46572705    -0.74300
O1324       O  0.17090294  0.29536236  0.42195693    -0.81100
O1325       O  0.19871768  0.27022951  0.51980422    -0.82800
O1326       O  0.17132581  0.28277830  0.38168300    -0.78500
O1327       O  0.18441854  0.28600203  0.50245201    -0.90100
O1328       O  0.12976745  0.23162556  0.45205225    -0.76100
O1329       O  0.16378379  0.25616963  0.41960262    -0.85600
O1330       O  0.16838150  0.24636576  0.47286711    -0.85200
O1331       O  0.20291690  0.28898129  0.42310576    -0.72000
O1332       O  0.20635410  0.27827197  0.47175392    -0.84100
Zr1333     Zr  0.20884098  0.23718890  0.41776569     2.26400
Zr1334     Zr  0.18886173  0.26639735  0.38757593     2.06300
Zr1335     Zr  0.19682018  0.24670162  0.48765823     2.10000
Zr1336     Zr  0.15483303  0.22528489  0.43605276     1.78800
O1337       O  0.21894668  0.25207314  0.52412656    -0.92900
O1338       O  0.13258719  0.21475051  0.39854709    -0.40800
O1339       O  0.18344580  0.22552049  0.45049892    -0.77400
O1340       O  0.17949619  0.23493881  0.40273593    -0.96100
O1341       O  0.21788724  0.26830582  0.40207843    -0.89400
O1342       O  0.22180981  0.25784615  0.45541577    -0.92200
C1343       C  0.12918819  0.24594034  0.46245593     1.01500
C1344       C  0.19308169  0.28257091  0.52125336     1.14500
C1345       C  0.16793001  0.29356931  0.39660518     1.05200
O1346       O  0.16514625  0.25026493  0.35269399    -0.94400
O1347       O  0.20127541  0.25595121  0.35219343    -0.90100
O1348       O  0.21368383  0.23843519  0.36933362    -0.83300
C1349       C  0.20965578  0.24614662  0.34972948     1.11900
O1350       O  0.24110612  0.32234942  0.44900747    -0.96300
Zr1351     Zr  0.23103487  0.28904839  0.43913333     1.88900
O1352       O  0.24365866  0.25092462  0.41654922    -0.73000
O1353       O  0.20861036  0.29450400  0.36043709    -0.52300
O1354       O  0.24925884  0.30978040  0.40216611    -0.96900
O1355       O  0.25227789  0.30173277  0.47756165    -0.54200
O1356       O  0.25611920  0.28163459  0.43071053    -0.73500
C1357       C  0.25778087  0.26732280  0.42323723     0.98800
O1358       O  0.19923611  0.20550520  0.39989064    -0.62300
O1359       O  0.17140056  0.22386771  0.51669583    -0.57100
O1360       O  0.21457243  0.21743555  0.44808439    -0.93800
O1361       O  0.20738688  0.22280968  0.48984915    -0.92200
O1362       O  0.14025229  0.20310918  0.47306400    -0.92600
O1363       O  0.14245795  0.19273915  0.41983308    -0.91400
C1364       C  0.21302893  0.21438339  0.47326209     1.17700
H1365       H  0.15937679  0.24305770  0.48735253     0.33600
H1366       H  0.17458978  0.22606379  0.38801695     0.44500
H1367       H  0.23241944  0.25724334  0.46327672     0.38000
H1368       H  0.20625775  0.30164880  0.41711927     0.34500
H1369       H  0.11995814  0.20555667  0.40620410     0.26300
H1370       H  0.22171639  0.29653135  0.36226717     0.32200
H1371       H  0.26240779  0.31767945  0.40919863     0.38100
H1372       H  0.12641295  0.19603909  0.46887633     0.32600
H1373       H  0.17757199  0.21835942  0.52788413     0.31400
H1374       H  0.21071766  0.24582146  0.53983615     0.33100
H1375       H  0.25498183  0.29146578  0.48273488     0.32100
H1376       H  0.15209630  0.18926296  0.42544839     0.36100
H1377       H  0.18989444  0.19643375  0.41294089     0.28800
H1378       H  0.16878143  0.30664540  0.46995478     0.33100
H1379       H  0.23114298  0.32171401  0.46120130     0.35900
H1380       H  0.16885024  0.23186489  0.52916337     0.28500
H1381       H  0.19133709  0.20410161  0.38401946     0.41400
H1382       H  0.15931915  0.23644143  0.35659675     0.31400
H1383       H  0.13141460  0.22603809  0.39380400     0.39100
H1384       H  0.24412054  0.30196753  0.49215506     0.30900
H1385       H  0.20496593  0.29013798  0.34179205     0.31000
H1386       H  0.19037660  0.31760147  0.46111631     0.31200
Zr1387     Zr  0.23338328  0.40213127  0.71922210     2.17500
O1388       O  0.20308875  0.37766392  0.70025391    -0.51100
O1389       O  0.21681947  0.41929933  0.70769819    -0.74300
O1390       O  0.20987772  0.38382978  0.75401495    -0.81100
O1391       O  0.26025498  0.40018855  0.65680009    -0.82800
O1392       O  0.22280348  0.39793650  0.79356230    -0.78500
O1393       O  0.23142172  0.38586284  0.67759993    -0.90100
O1394       O  0.23442129  0.45064625  0.71845830    -0.76100
O1395       O  0.24268080  0.42648359  0.75192275    -0.85600
O1396       O  0.25577035  0.43141269  0.69781421    -0.85200
O1397       O  0.24654198  0.39192593  0.75446873    -0.72000
O1398       O  0.25961562  0.39827293  0.70550816    -0.84100
Zr1399     Zr  0.30549923  0.44173038  0.75415818     2.26400
Zr1400     Zr  0.25660780  0.41712324  0.78656053     2.06300
Zr1401     Zr  0.28224520  0.42749679  0.68470133     2.10000
Zr1402     Zr  0.26570372  0.45553292  0.73131736     1.78800
O1403       O  0.29923682  0.41994799  0.65100648    -0.92900
O1404       O  0.25688697  0.47109959  0.76575489    -0.40800
O1405       O  0.29219642  0.45154975  0.71845603    -0.77400
O1406       O  0.27971300  0.44697331  0.76744004    -0.96100
O1407       O  0.28250977  0.41242261  0.77393632    -0.89400
O1408       O  0.29601201  0.41824471  0.71987281    -0.92200
C1409       C  0.21903468  0.43612510  0.70989925     1.01500
C1410       C  0.24253624  0.38697536  0.65849164     1.14500
C1411       C  0.20894337  0.38567572  0.77936871     1.05200
O1412       O  0.24642067  0.43442517  0.81592449    -0.94400
O1413       O  0.28030783  0.43223887  0.82060058    -0.90100
O1414       O  0.30997786  0.44428685  0.80278164    -0.83300
C1415       C  0.29850521  0.44059347  0.82265349     1.11900
O1416       O  0.25066975  0.35563275  0.72916117    -0.96300
Zr1417     Zr  0.27332451  0.38892840  0.74005536     1.88900
O1418       O  0.32503985  0.42617182  0.75766346    -0.73000
O1419       O  0.25107769  0.39362789  0.82113567    -0.52300
O1420       O  0.26684852  0.36803947  0.77847008    -0.96900
O1421       O  0.28280122  0.37663407  0.70202671    -0.54200
O1422       O  0.30437571  0.39430514  0.75347835    -0.73500
C1423       C  0.32115150  0.40860387  0.75739526     0.98800
O1424       O  0.32898080  0.47391493  0.76894243    -0.62300
O1425       O  0.27851530  0.44786916  0.65213612    -0.57100
O1426       O  0.33019021  0.45882433  0.72127703    -0.93800
O1427       O  0.31654125  0.45064760  0.68020551    -0.92200
O1428       O  0.27247772  0.47492133  0.69112815    -0.92600
O1429       O  0.29036975  0.48871124  0.73861788    -0.91400
C1430       C  0.33102975  0.46004205  0.69573596     1.17700
H1431       H  0.24999351  0.43404377  0.68274178     0.33600
H1432       H  0.28422525  0.45689964  0.78081651     0.44500
H1433       H  0.30676206  0.41749074  0.71282066     0.38000
H1434       H  0.23730317  0.37973130  0.76199494     0.34500
H1435       H  0.24951291  0.47615331  0.75641596     0.26300
H1436       H  0.24508571  0.39679489  0.83605373     0.32200
H1437       H  0.27178732  0.37677603  0.79398809     0.38100
H1438       H  0.26115990  0.47646286  0.68843133     0.32600
H1439       H  0.29161177  0.45655982  0.64547219     0.31400
H1440       H  0.30030520  0.42800926  0.63547273     0.33100
H1441       H  0.29674615  0.38186434  0.70402669     0.32100
H1442       H  0.30200741  0.48807663  0.74302865     0.36100
H1443       H  0.33019795  0.48248523  0.75400692     0.28800
H1444       H  0.19329498  0.38061903  0.70692753     0.33100
H1445       H  0.25750221  0.34852050  0.73281631     0.35900
H1446       H  0.27179377  0.43929931  0.63691179     0.28500
H1447       H  0.32247564  0.47718330  0.78302214     0.41400
H1448       H  0.24288490  0.42711760  0.83285022     0.31400
H1449       H  0.24729502  0.46047719  0.77684049     0.39100
H1450       H  0.28160172  0.38345349  0.68637279     0.30900
H1451       H  0.24077736  0.38125767  0.81418128     0.31000
H1452       H  0.20014136  0.36554293  0.70920040     0.31200
Zr1453     Zr  0.26361716  0.19353052  0.05314127     2.17500
O1454       O  0.29469611  0.19864832  0.03875784    -0.51100
O1455       O  0.24846487  0.16002766  0.04023845    -0.74300
O1456       O  0.27938640  0.18426161  0.08712871    -0.81100
O1457       O  0.26119158  0.21859475  0.98971859    -0.82800
O1458       O  0.26698562  0.18533079  0.12719360    -0.78500
O1459       O  0.27469049  0.20228849  0.00769445    -0.90100
O1460       O  0.21686231  0.14631662  0.04972329    -0.76100
O1461       O  0.23983668  0.17778174  0.08629435    -0.85600
O1462       O  0.23397169  0.18628661  0.03264081    -0.85200
O1463       O  0.27326571  0.21631117  0.08887719    -0.72000
O1464       O  0.26649416  0.22344678  0.04007768    -0.84100
Zr1465     Zr  0.22255871  0.22388741  0.09015095     2.26400
Zr1466     Zr  0.24849626  0.20066225  0.12128539     2.06300
Zr1467     Zr  0.23664109  0.21626630  0.02041543     2.10000
Zr1468     Zr  0.21042220  0.17100218  0.06643006     1.78800
O1469       O  0.24697999  0.24362450  0.99078991    -0.92900
O1470       O  0.19734320  0.14608712  0.10043486    -0.40800
O1471       O  0.21294623  0.20098585  0.05430775    -0.77400
O1472       O  0.21834860  0.19323408  0.10287597    -0.96100
O1473       O  0.25224712  0.23087898  0.10921480    -0.89400
O1474       O  0.24588046  0.23888860  0.05586917    -0.92200
C1475       C  0.23146847  0.14553500  0.04107885     1.01500
C1476       C  0.27294257  0.21217370  0.98899572     1.14500
C1477       C  0.27771636  0.18169303  0.11254428     1.05200
O1478       O  0.22861239  0.17308444  0.14925043    -0.94400
O1479       O  0.23679658  0.21207957  0.15640145    -0.90100
O1480       O  0.22224072  0.22743756  0.13863411    -0.83300
C1481       C  0.22833644  0.22183977  0.15847959     1.11900
O1482       O  0.30875676  0.25469096  0.06697809    -0.96300
Zr1483     Zr  0.27560156  0.24597161  0.07554806     1.88900
O1484       O  0.23690070  0.25867786  0.09326497    -0.73000
O1485       O  0.27268988  0.21709782  0.15569054    -0.52300
O1486       O  0.29477246  0.25955795  0.11573191    -0.96900
O1487       O  0.29006100  0.26892437  0.03926122    -0.54200
O1488       O  0.26898171  0.27118494  0.08805439    -0.73500
C1489       C  0.25416379  0.27281933  0.09241719     0.98800
O1490       O  0.19094871  0.21443669  0.10828936    -0.62300
O1491       O  0.21607368  0.19428306  0.98596932    -0.57100
O1492       O  0.20324030  0.22909463  0.05807900    -0.93800
O1493       O  0.21174897  0.22518296  0.01627160    -0.92200
O1494       O  0.18922148  0.15772360  0.02804270    -0.92600
O1495       O  0.17711918  0.16026463  0.07705564    -0.91400
C1496       C  0.20145272  0.22857945  0.03260599     1.17700
H1497       H  0.23142335  0.17821800  0.01719040     0.33600
H1498       H  0.20859798  0.18758782  0.11646233     0.44500
H1499       H  0.24620782  0.25022954  0.04897560     0.38000
H1500       H  0.28543875  0.21891168  0.09610409     0.34500
H1501       H  0.18905807  0.13413087  0.09050825     0.26300
H1502       H  0.26951421  0.20750227  0.16999477     0.32200
H1503       H  0.29863957  0.27329536  0.11542275     0.38100
H1504       H  0.19610262  0.15391879  0.01529041     0.32600
H1505       H  0.21235369  0.20200989  0.97476580     0.31400
H1506       H  0.24369824  0.23807005  0.97263484     0.33100
H1507       H  0.28146410  0.27423905  0.03651505     0.32100
H1508       H  0.17720334  0.17187073  0.08370118     0.36100
H1509       H  0.18178605  0.20675016  0.09409654     0.28800
H1510       H  0.29426949  0.18626689  0.04133013     0.33100
H1511       H  0.31633623  0.26874307  0.06931109     0.35900
H1512       H  0.22474688  0.19202799  0.97448801     0.28500
H1513       H  0.18869709  0.20489466  0.12232484     0.41400
H1514       H  0.23391412  0.17702817  0.16744681     0.31400
H1515       H  0.20832121  0.14472847  0.10633330     0.39100
H1516       H  0.28811398  0.26096996  0.02323347     0.30900
H1517       H  0.28488307  0.21911519  0.14805482     0.31000
H1518       H  0.30397361  0.20740440  0.05212935     0.31200
Zr1519     Zr  0.38455160  0.25206463  0.78006796     2.17500
O1520       O  0.35716944  0.22265315  0.79636425    -0.51100
O1521       O  0.40032019  0.23386836  0.79000016    -0.74300
O1522       O  0.36719979  0.22886453  0.74411043    -0.81100
O1523       O  0.38642942  0.27820549  0.84491756    -0.82800
O1524       O  0.38275184  0.24196206  0.70534698    -0.78500
O1525       O  0.37078806  0.24936095  0.82415442    -0.90100
O1526       O  0.43214989  0.25168420  0.78223059    -0.76100
O1527       O  0.40904725  0.26080675  0.74775610    -0.85600
O1528       O  0.41417392  0.27361733  0.80150363    -0.85200
O1529       O  0.37538617  0.26618982  0.74507738    -0.72000
O1530       O  0.38155798  0.27881825  0.79499178    -0.84100
Zr1531     Zr  0.42659887  0.32472236  0.74708376     2.26400
Zr1532     Zr  0.40079292  0.27581692  0.71352156     2.06300
Zr1533     Zr  0.41160560  0.30074312  0.81535266     2.10000
Zr1534     Zr  0.43834763  0.28319579  0.76823510     1.78800
O1535       O  0.40333445  0.31514314  0.85193986    -0.92900
O1536       O  0.45188191  0.27333448  0.73219986    -0.40800
O1537       O  0.43594774  0.31050459  0.78206203    -0.77400
O1538       O  0.43073891  0.29840386  0.73290077    -0.96100
O1539       O  0.39717167  0.30225510  0.72687429    -0.89400
O1540       O  0.40268226  0.31520360  0.78089749    -0.92200
C1541       C  0.41718502  0.23605044  0.78913670     1.01500
C1542       C  0.37331864  0.26048823  0.84397307     1.14500
C1543       C  0.37015974  0.22796919  0.71902014     1.05200
O1544       O  0.41962156  0.26815650  0.68305763    -0.94400
O1545       O  0.41516488  0.30020800  0.68070295    -0.90100
O1546       O  0.42990552  0.32997366  0.69869063    -0.83300
C1547       C  0.42449535  0.31839942  0.67869807     1.11900
O1548       O  0.33947904  0.26909223  0.76422586    -0.96300
Zr1549     Zr  0.37320449  0.29333750  0.75995330     1.88900
O1550       O  0.41181287  0.34490758  0.74303709    -0.73000
O1551       O  0.37631122  0.26957461  0.68029734    -0.52300
O1552       O  0.35552402  0.29079417  0.71926605    -0.96900
O1553       O  0.35690230  0.30032684  0.79551821    -0.54200
O1554       O  0.37986870  0.32545263  0.74981574    -0.73500
C1555       C  0.39455588  0.34180376  0.74487916     0.98800
O1556       O  0.45948818  0.34715304  0.73369884    -0.62300
O1557       O  0.43378572  0.29848248  0.84613353    -0.57100
O1558       O  0.44282063  0.34940364  0.78054980    -0.93800
O1559       O  0.43323129  0.33538750  0.82124098    -0.92200
O1560       O  0.45877078  0.29152746  0.80745867    -0.92600
O1561       O  0.47225616  0.30391509  0.75887110    -0.91400
C1562       C  0.44292318  0.35010065  0.80615206     1.17700
H1563       H  0.41654302  0.26758457  0.81651564     0.33600
H1564       H  0.44066010  0.30278864  0.71952458     0.44500
H1565       H  0.40217069  0.32598636  0.78832794     0.38000
H1566       H  0.36325816  0.25709198  0.73729510     0.34500
H1567       H  0.45757688  0.26638563  0.74109920     0.26300
H1568       H  0.37885853  0.26297747  0.66554937     0.32200
H1569       H  0.36524666  0.29960535  0.70639669     0.38100
H1570       H  0.45744980  0.27929561  0.81377649     0.32600
H1571       H  0.43979114  0.31073929  0.85603856     0.31400
H1572       H  0.41048356  0.31437277  0.86750420     0.33100
H1573       H  0.36621047  0.31342906  0.80154650     0.32100
H1574       H  0.47287184  0.31447731  0.74804260     0.36100
H1575       H  0.46744430  0.34801250  0.74925700     0.28800
H1576       H  0.35911289  0.21211760  0.79000151     0.33100
H1577       H  0.33223108  0.27575533  0.76035354     0.35900
H1578       H  0.42549940  0.28881065  0.85944997     0.28500
H1579       H  0.46269359  0.34025112  0.72015282     0.41400
H1580       H  0.41347692  0.26650911  0.66540378     0.31400
H1581       H  0.44068576  0.26327219  0.72249972     0.39100
H1582       H  0.35610639  0.29198694  0.81054328     0.30900
H1583       H  0.36412951  0.25964149  0.68822994     0.31000
H1584       H  0.34599151  0.22125252  0.78625498     0.31200
Zr1585     Zr  0.50652218  0.94276030  0.11974542     2.17500
O1586       O  0.50654599  0.97107889  0.13717766    -0.51100
O1587       O  0.47287594  0.92770267  0.13132062    -0.74300
O1588       O  0.49928645  0.96021152  0.08568368    -0.81100
O1589       O  0.53477305  0.94098603  0.18041255    -0.82800
O1590       O  0.49726582  0.94606245  0.04586603    -0.78500
O1591       O  0.52020731  0.95651345  0.16301267    -0.90100
O1592       O  0.45766554  0.89636924  0.11985531    -0.76100
O1593       O  0.49021112  0.91932791  0.08633716    -0.85600
O1594       O  0.49800150  0.91258236  0.13996457    -0.85200
O1595       O  0.52907909  0.95188837  0.08373363    -0.72000
O1596       O  0.53581611  0.94408157  0.13237845    -0.84100
Zr1597     Zr  0.53459378  0.89990358  0.08064147     2.26400
Zr1598     Zr  0.51274443  0.92756292  0.05095821     2.06300
Zr1599     Zr  0.52753389  0.91374706  0.15150276     2.10000
Zr1600     Zr  0.48245403  0.88945647  0.10557979     1.78800
O1601       O  0.55109928  0.91913062  0.18582495    -0.92900
O1602       O  0.45809760  0.87727962  0.07076544    -0.40800
O1603       O  0.51195999  0.89066321  0.11696958    -0.77400
O1604       O  0.50427553  0.89694895  0.06884274    -0.96100
O1605       O  0.54271381  0.93023217  0.06227674    -0.89400
O1606       O  0.54975264  0.92253553  0.11573528    -0.92200
C1607       C  0.45770104  0.91134812  0.12860048     1.01500
C1608       C  0.53041170  0.95432636  0.18086224     1.14500
C1609       C  0.49518972  0.95778158  0.06065515     1.05200
O1610       O  0.48656749  0.91062516  0.01948528    -0.94400
O1611       O  0.52123559  0.91346086  0.01518418    -0.90100
O1612       O  0.53580208  0.89780348  0.03164301    -0.83300
C1613       C  0.52956263  0.90362080  0.01213667     1.11900
O1614       O  0.56658860  0.98623540  0.10307051    -0.96300
Zr1615     Zr  0.55816088  0.95289644  0.09701269     1.88900
O1616       O  0.56940991  0.91367223  0.07697057    -0.73000
O1617       O  0.52998196  0.95417648  0.02033341    -0.52300
O1618       O  0.57506669  0.97204800  0.05819024    -0.96900
O1619       O  0.57976465  0.96783272  0.13464501    -0.54200
O1620       O  0.58303124  0.94490077  0.08963221    -0.73500
C1621       C  0.58396866  0.93006624  0.08269239     0.98800
O1622       O  0.52428487  0.86757776  0.06442448    -0.62300
O1623       O  0.50318127  0.89300328  0.18348562    -0.57100
O1624       O  0.54139469  0.88137074  0.11227224    -0.93800
O1625       O  0.53909954  0.89057200  0.15426771    -0.92200
O1626       O  0.46916250  0.86903711  0.14463408    -0.92600
O1627       O  0.47165924  0.85607352  0.09564877    -0.91400
C1628       C  0.54255475  0.88038866  0.13769366     1.17700
H1629       H  0.48986630  0.91018299  0.15532637     0.33600
H1630       H  0.49820297  0.88729747  0.05521147     0.44500
H1631       H  0.56069489  0.92221736  0.12287777     0.38000
H1632       H  0.53218049  0.96424816  0.07664330     0.34500
H1633       H  0.44661028  0.86666341  0.07923688     0.26300
H1634       H  0.54359553  0.95795632  0.02271617     0.32200
H1635       H  0.57693932  0.96324581  0.04644627     0.38100
H1636       H  0.45514442  0.86343106  0.14292310     0.32600
H1637       H  0.50316683  0.88073178  0.18250871     0.31400
H1638       H  0.54359460  0.91144201  0.20132620     0.33100
H1639       H  0.57796780  0.95701822  0.14601520     0.32100
H1640       H  0.48346376  0.85518098  0.09615491     0.36100
H1641       H  0.51701802  0.85890846  0.07931005     0.28800
H1642       H  0.49386629  0.96945748  0.13265545     0.33100
H1643       H  0.58072386  0.99379517  0.10215694     0.35900
H1644       H  0.50868385  0.89830513  0.20121061     0.28500
H1645       H  0.51433750  0.86491175  0.05085774     0.41400
H1646       H  0.47549194  0.91087582  0.02756359     0.31400
H1647       H  0.45474649  0.88742634  0.06810276     0.39100
H1648       H  0.59278395  0.97306411  0.12713128     0.30900
H1649       H  0.52665110  0.94837372  0.00232901     0.31000
H1650       H  0.51579691  0.98192871  0.12605989     0.31200
Zr1651     Zr  0.57123399  0.06611061  0.38753282     2.17500
O1652       O  0.54295007  0.03637144  0.37376290    -0.51100
O1653       O  0.55230530  0.08002074  0.37179098    -0.74300
O1654       O  0.54727964  0.05073791  0.42283090    -0.81100
O1655       O  0.59890365  0.06731630  0.32453433    -0.82800
O1656       O  0.56096870  0.06461924  0.46215396    -0.78500
O1657       O  0.57016484  0.05079868  0.34536975    -0.90100
O1658       O  0.56838251  0.11157667  0.38200974    -0.76100
O1659       O  0.57899552  0.09145829  0.41815506    -0.85600
O1660       O  0.59244500  0.09501908  0.36447336    -0.85200
O1661       O  0.58562394  0.05916797  0.42480161    -0.72000
O1662       O  0.59869087  0.06355785  0.37562661    -0.84100
Zr1663     Zr  0.64297148  0.11072816  0.42259549     2.26400
Zr1664     Zr  0.59429465  0.08543875  0.45458876     2.06300
Zr1665     Zr  0.62033090  0.09297180  0.35385787     2.10000
Zr1666     Zr  0.60073014  0.12008954  0.39576913     1.78800
O1667       O  0.63719895  0.08222569  0.32459786    -0.92900
O1668       O  0.59042191  0.13515243  0.42886186    -0.40800
O1669       O  0.62873791  0.11808379  0.38536412    -0.77400
O1670       O  0.61606829  0.11471027  0.43326755    -0.96100
O1671       O  0.62119174  0.08177716  0.44441571    -0.89400
O1672       O  0.63489801  0.08612588  0.39039879    -0.92200
C1673       C  0.55346593  0.09645102  0.37351688     1.01500
C1674       C  0.58155164  0.05353558  0.32581356     1.14500
C1675       C  0.54669085  0.05284519  0.44816655     1.05200
O1676       O  0.58303084  0.10334709  0.48074148    -0.94400
O1677       O  0.61754957  0.10387440  0.48791650    -0.90100
O1678       O  0.64740848  0.11559145  0.47099030    -0.83300
C1679       C  0.63573642  0.11265018  0.49033472     1.11900
O1680       O  0.59018534  0.02318964  0.40968255    -0.96300
Zr1681     Zr  0.61336041  0.05719610  0.41246727     1.88900
O1682       O  0.66411015  0.09721507  0.42860775    -0.73000
O1683       O  0.58925265  0.06382686  0.49155577    -0.52300
O1684       O  0.61065233  0.03853164  0.45201895    -0.96900
O1685       O  0.62160572  0.04173948  0.37720723    -0.54200
O1686       O  0.64560351  0.06493392  0.42418422    -0.73500
C1687       C  0.66168563  0.08017529  0.42822842     0.98800
O1688       O  0.66518271  0.14397610  0.43459590    -0.62300
O1689       O  0.61731366  0.11205973  0.31849167    -0.57100
O1690       O  0.66733894  0.12708356  0.38929009    -0.93800
O1691       O  0.65398271  0.11727109  0.34829177    -0.92200
O1692       O  0.60691704  0.13754247  0.35385519    -0.92600
O1693       O  0.62214501  0.15426893  0.40206760    -0.91400
C1694       C  0.66822751  0.12757317  0.36374799     1.17700
H1695       H  0.58658514  0.09661876  0.34861377     0.33600
H1696       H  0.62002637  0.12521011  0.44560558     0.44500
H1697       H  0.64602812  0.08588483  0.38382983     0.38000
H1698       H  0.57662242  0.04724370  0.43320270     0.34500
H1699       H  0.58655762  0.14309048  0.41840655     0.26300
H1700       H  0.60212523  0.06587863  0.49582050     0.32200
H1701       H  0.60952422  0.04587066  0.46702573     0.38100
H1702       H  0.59632247  0.14032669  0.35204032     0.32600
H1703       H  0.62776811  0.12528078  0.32189787     0.31400
H1704       H  0.63691933  0.08740835  0.30680403     0.33100
H1705       H  0.63448954  0.05156559  0.37110450     0.32100
H1706       H  0.63508746  0.15575275  0.40273878     0.36100
H1707       H  0.66568922  0.15158223  0.41879135     0.28800
H1708       H  0.53192379  0.03840173  0.37645718     0.33100
H1709       H  0.58293782  0.02180997  0.39309935     0.35900
H1710       H  0.62122549  0.10813984  0.30202785     0.28500
H1711       H  0.65837934  0.14734010  0.44808883     0.41400
H1712       H  0.57860549  0.09626947  0.49779777     0.31400
H1713       H  0.57825193  0.12458547  0.43591229     0.39100
H1714       H  0.61305312  0.04031219  0.36214076     0.30900
H1715       H  0.58600678  0.06939239  0.50692662     0.31000
H1716       H  0.54126665  0.02654734  0.38703255     0.31200
Zr1717     Zr  0.80327389  0.09110115  0.05238130     2.17500
O1718       O  0.80230191  0.11941481  0.03736909    -0.51100
O1719       O  0.83691602  0.10915387  0.04094850    -0.74300
O1720       O  0.81086636  0.11458458  0.08831265    -0.81100
O1721       O  0.78074550  0.06517897  0.98727948    -0.82800
O1722       O  0.81195321  0.10112683  0.12746745    -0.78500
O1723       O  0.79335147  0.09403107  0.00795716    -0.90100
O1724       O  0.85106414  0.09168487  0.05078550    -0.76100
O1725       O  0.81853291  0.08240859  0.08537599    -0.85600
O1726       O  0.81121808  0.06918742  0.03156161    -0.85200
O1727       O  0.77965306  0.07728371  0.08693098    -0.72000
O1728       O  0.77379604  0.06436805  0.03758023    -0.84100
Zr1729     Zr  0.77238118  0.01879020  0.08704511     2.26400
Zr1730     Zr  0.79498499  0.06763059  0.11925876     2.06300
Zr1731     Zr  0.78160994  0.04212344  0.01779416     2.10000
Zr1732     Zr  0.82583927  0.06016773  0.06547340     1.78800
O1733       O  0.75327435  0.02499566  0.98981645    -0.92900
O1734       O  0.85018627  0.07128624  0.10022509    -0.40800
O1735       O  0.79609264  0.03305785  0.05209015    -0.77400
O1736       O  0.80283177  0.04519070  0.10079606    -0.96100
O1737       O  0.76501761  0.04123649  0.10626347    -0.89400
O1738       O  0.75819697  0.02765116  0.05204349    -0.92200
C1739       C  0.85164699  0.10707359  0.04255235     1.01500
C1740       C  0.78547184  0.08294913  0.98792142     1.14500
C1741       C  0.81446694  0.11535733  0.11344569     1.05200
O1742       O  0.82102882  0.07729215  0.15103454    -0.94400
O1743       O  0.78628973  0.04409565  0.15308176    -0.90100
O1744       O  0.76926233  0.01425855  0.13585398    -0.83300
C1745       C  0.77633350  0.02597733  0.15564438     1.11900
O1746       O  0.73852790  0.07209447  0.06854825    -0.96300
Zr1747     Zr  0.75056555  0.04984649  0.07195185     1.88900
O1748       O  0.73736933  0.99824912  0.08912858    -0.73000
O1749       O  0.77584926  0.07387878  0.15098266    -0.52300
O1750       O  0.73405725  0.04998115  0.11257992    -0.96900
O1751       O  0.73149694  0.04749791  0.03296987    -0.54200
O1752       O  0.72498295  0.01705590  0.07699696    -0.73500
C1753       C  0.72326171  0.00081361  0.08316397     0.98800
O1754       O  0.78092601  0.99554382  0.10369798    -0.62300
O1755       O  0.80203259  0.04354667  0.98096432    -0.57100
O1756       O  0.76769282  0.99507351  0.05369662    -0.93800
O1757       O  0.77476925  0.00905111  0.01277742    -0.92200
O1758       O  0.83944313  0.05283167  0.02691935    -0.92600
O1759       O  0.83548699  0.03697518  0.07772974    -0.91400
C1760       C  0.76987023  0.99463672  0.02838081     1.17700
H1761       H  0.81958237  0.07490564  0.01641880     0.33600
H1762       H  0.80830948  0.04090343  0.11438469     0.44500
H1763       H  0.74732632  0.01677727  0.04404817     0.38000
H1764       H  0.77671766  0.08660831  0.09427015     0.34500
H1765       H  0.86227447  0.07491626  0.09066873     0.26300
H1766       H  0.78445321  0.07997067  0.16640960     0.32200
H1767       H  0.73212728  0.03863586  0.12278683     0.38100
H1768       H  0.85293688  0.05742727  0.03185758     0.32600
H1769       H  0.80533637  0.03350860  0.98489122     0.31400
H1770       H  0.75823459  0.02622966  0.97142279     0.33100
H1771       H  0.71806559  0.03908618  0.03859194     0.32100
H1772       H  0.82375000  0.02438325  0.07551714     0.36100
H1773       H  0.78788900  0.99343090  0.08903431     0.28800
H1774       H  0.81544284  0.13027318  0.03992020     0.33100
H1775       H  0.74890159  0.08345445  0.05948407     0.35900
H1776       H  0.79338590  0.03860243  0.96535144     0.28500
H1777       H  0.79099189  0.00256074  0.11721595     0.41400
H1778       H  0.82704169  0.06957769  0.14629860     0.31400
H1779       H  0.85157664  0.08360116  0.10630260     0.39100
H1780       H  0.73400908  0.03971595  0.02006908     0.30900
H1781       H  0.77431511  0.08424306  0.14293681     0.31000
H1782       H  0.79434661  0.12150470  0.05049871     0.31200
Zr1783     Zr  0.74213168  0.15382802  0.78207542     2.17500
O1784       O  0.77188476  0.15503454  0.79505994    -0.51100
O1785       O  0.76035587  0.18732006  0.79450790    -0.74300
O1786       O  0.76492974  0.16200045  0.74517471    -0.81100
O1787       O  0.71737074  0.12932584  0.84795174    -0.82800
O1788       O  0.75068393  0.16258107  0.70653272    -0.78500
O1789       O  0.74526103  0.14137022  0.82485226    -0.90100
O1790       O  0.74197797  0.20100237  0.78888183    -0.76100
O1791       O  0.73208370  0.16945828  0.75139087    -0.85600
O1792       O  0.72023816  0.16033388  0.80589042    -0.85200
O1793       O  0.72824466  0.13157013  0.74580140    -0.72000
O1794       O  0.71621253  0.12343800  0.79587720    -0.84100
Zr1795     Zr  0.66938370  0.12230803  0.75081364     2.26400
Zr1796     Zr  0.71714461  0.14711610  0.71585433     2.06300
Zr1797     Zr  0.69370965  0.12982892  0.81838326     2.10000
Zr1798     Zr  0.71001596  0.17555421  0.77460955     1.78800
O1799       O  0.67953957  0.10205548  0.84771662    -0.92900
O1800       O  0.71991058  0.20154460  0.74265298    -0.40800
O1801       O  0.68340350  0.14495473  0.78690090    -0.77400
O1802       O  0.69475771  0.15359907  0.73792388    -0.96100
O1803       O  0.69177895  0.11641679  0.72845997    -0.89400
O1804       O  0.67973337  0.10753215  0.78274892    -0.92200
C1805       C  0.75793687  0.20187092  0.79494260     1.01500
C1806       C  0.73488293  0.13341449  0.84554307     1.14500
C1807       C  0.76522031  0.16515418  0.71996262     1.05200
O1808       O  0.72413197  0.17547849  0.69018531    -0.94400
O1809       O  0.69249129  0.13622003  0.68238590    -0.90100
O1810       O  0.66346016  0.11995037  0.70277356    -0.83300
C1811       C  0.67420348  0.12650488  0.68205600     1.11900
O1812       O  0.72672533  0.09258411  0.76384598    -0.96300
Zr1813     Zr  0.70201625  0.10146051  0.75984764     1.88900
O1814       O  0.65001696  0.08741594  0.74744399    -0.73000
O1815       O  0.72341858  0.13089135  0.67952879    -0.52300
O1816       O  0.70498622  0.08778323  0.71792908    -0.96900
O1817       O  0.69520458  0.07809625  0.79512092    -0.54200
O1818       O  0.67040495  0.07561757  0.74900627    -0.73500
C1819       C  0.65366507  0.07359809  0.74698592     0.98800
O1820       O  0.64534748  0.13054416  0.73690453    -0.62300
O1821       O  0.69470834  0.15110164  0.85357647    -0.57100
O1822       O  0.64493443  0.11339193  0.78432272    -0.93800
O1823       O  0.65936016  0.11876581  0.82479771    -0.92200
O1824       O  0.70171343  0.18675278  0.81494533    -0.92600
O1825       O  0.68582687  0.18478120  0.76726612    -0.91400
C1826       C  0.64450670  0.11359664  0.80987957     1.17700
H1827       H  0.72616552  0.16822819  0.82136764     0.33600
H1828       H  0.68987179  0.15921596  0.72542868     0.44500
H1829       H  0.66929115  0.09593030  0.79002352     0.38000
H1830       H  0.73754139  0.12913076  0.73724292     0.34500
H1831       H  0.72375877  0.21308089  0.75371661     0.26300
H1832       H  0.73053330  0.14092059  0.66599647     0.32200
H1833       H  0.69796123  0.09098254  0.70459121     0.38100
H1834       H  0.71398393  0.19468674  0.82435183     0.32600
H1835       H  0.68321681  0.15229429  0.85055253     0.31400
H1836       H  0.67851858  0.10709114  0.86528300     0.33100
H1837       H  0.68142092  0.06860739  0.79347955     0.32100
H1838       H  0.67354332  0.17319780  0.77174230     0.36100
H1839       H  0.64296125  0.13642002  0.75270808     0.28800
H1840       H  0.78230134  0.16796037  0.79008054     0.33100
H1841       H  0.72040815  0.07887691  0.75890273     0.35900
H1842       H  0.69186278  0.14345475  0.87012457     0.28500
H1843       H  0.65207740  0.14138688  0.72436636     0.41400
H1844       H  0.72623553  0.17248323  0.67176697     0.31400
H1845       H  0.73206303  0.20337290  0.73513066     0.39100
H1846       H  0.69614781  0.08505497  0.81183877     0.30900
H1847       H  0.73285376  0.12758325  0.68665436     0.31000
H1848       H  0.77332196  0.14614335  0.78291097     0.31200
Zr1849     Zr  0.71991794  0.91930778  0.44946662     2.17500
O1850       O  0.69121510  0.89046345  0.46431623    -0.51100
O1851       O  0.73495270  0.90069029  0.46040930    -0.74300
O1852       O  0.70412379  0.89571636  0.41377878    -0.81100
O1853       O  0.72096909  0.94477882  0.51416208    -0.82800
O1854       O  0.71648212  0.91020856  0.37426628    -0.78500
O1855       O  0.70587204  0.91588614  0.49345291    -0.90100
O1856       O  0.76650480  0.91804704  0.45072365    -0.76100
O1857       O  0.74446288  0.92841200  0.41709820    -0.85600
O1858       O  0.74930917  0.94045710  0.47165288    -0.85200
O1859       O  0.71087326  0.93361995  0.41449878    -0.72000
O1860       O  0.71712555  0.94607967  0.46433071    -0.84100
Zr1861     Zr  0.76185287  0.99182387  0.41697134     2.26400
Zr1862     Zr  0.73633414  0.94364018  0.38286167     2.06300
Zr1863     Zr  0.74687331  0.96759963  0.48546209     2.10000
Zr1864     Zr  0.77353455  0.95023444  0.43863855     1.78800
O1865       O  0.73887219  0.98261351  0.52151442    -0.92900
O1866       O  0.78890248  0.94162902  0.40378933    -0.40800
O1867       O  0.77106040  0.97747445  0.45202950    -0.77400
O1868       O  0.76618114  0.96561377  0.40298410    -0.96100
O1869       O  0.73257009  0.96989810  0.39634546    -0.89400
O1870       O  0.73812036  0.98238693  0.45102837    -0.92200
C1871       C  0.75163911  0.90257781  0.45838652     1.01500
C1872       C  0.70807087  0.92694399  0.51321884     1.14500
C1873       C  0.70550848  0.89553281  0.38824369     1.05200
O1874       O  0.75392343  0.93385950  0.35340976    -0.94400
O1875       O  0.75216220  0.96785078  0.34975061    -0.90100
O1876       O  0.76383767  0.99719754  0.36869323    -0.83300
C1877       C  0.76017461  0.98605452  0.34847455     1.11900
O1878       O  0.67520586  0.93650510  0.43526706    -0.96300
Zr1879     Zr  0.70874731  0.96075540  0.42962117     1.88900
O1880       O  0.74736950  0.01227807  0.41428532    -0.73000
O1881       O  0.71328748  0.93943351  0.34824183    -0.52300
O1882       O  0.69081774  0.95799989  0.38906682    -0.96900
O1883       O  0.69322874  0.96749857  0.46645590    -0.54200
O1884       O  0.71526134  0.99279772  0.41904125    -0.73500
C1885       C  0.73011974  0.00923977  0.41521944     0.98800
O1886       O  0.79382110  0.01452120  0.40042429    -0.62300
O1887       O  0.76754534  0.96388695  0.51754717    -0.57100
O1888       O  0.77919094  0.01599085  0.45022010    -0.93800
O1889       O  0.77089533  0.00165295  0.49089184    -0.92200
O1890       O  0.79214014  0.95536859  0.47926000    -0.92600
O1891       O  0.80731161  0.97391423  0.43441902    -0.91400
C1892       C  0.78041256  0.01634583  0.47572367     1.17700
H1893       H  0.75151846  0.93423703  0.48658114     0.33600
H1894       H  0.77621492  0.97005180  0.38977208     0.44500
H1895       H  0.73767671  0.99318010  0.45856167     0.38000
H1896       H  0.69876948  0.92446458  0.40666805     0.34500
H1897       H  0.79231927  0.93269170  0.41241027     0.26300
H1898       H  0.71611807  0.93325461  0.33321881     0.32200
H1899       H  0.70042253  0.96308549  0.37455678     0.38100
H1900       H  0.79231551  0.94332399  0.48226849     0.32600
H1901       H  0.77392807  0.97611039  0.52751999     0.31400
H1902       H  0.74852624  0.98524814  0.53554196     0.33100
H1903       H  0.69372665  0.97965566  0.46172156     0.32100
H1904       H  0.80764303  0.98334762  0.42146886     0.36100
H1905       H  0.80249719  0.01813309  0.41597996     0.28800
H1906       H  0.69369090  0.87979350  0.46089112     0.33100
H1907       H  0.66790054  0.94322298  0.43231922     0.35900
H1908       H  0.75864990  0.95442638  0.53062892     0.28500
H1909       H  0.79754324  0.00676976  0.38926082     0.41400
H1910       H  0.74680852  0.93059387  0.33633425     0.31400
H1911       H  0.77841087  0.93351295  0.39137365     0.39100
H1912       H  0.70220916  0.97083073  0.48161600     0.30900
H1913       H  0.70069752  0.92945622  0.35506139     0.31000
H1914       H  0.68092974  0.88845959  0.45169743     0.31200
Zr1915     Zr  0.59386942  0.85631742  0.72082115     2.17500
O1916       O  0.62217536  0.85536293  0.70585804    -0.51100
O1917       O  0.57908397  0.82285642  0.70874301    -0.74300
O1918       O  0.61007581  0.84943533  0.75702494    -0.81100
O1919       O  0.59339248  0.88103622  0.65565027    -0.82800
O1920       O  0.59447477  0.84770101  0.79535774    -0.78500
O1921       O  0.60941454  0.86890551  0.67803014    -0.90100
O1922       O  0.54708340  0.80829149  0.71521137    -0.76100
O1923       O  0.56815412  0.83950250  0.75117825    -0.85600
O1924       O  0.56523166  0.84925050  0.69733866    -0.85200
O1925       O  0.60138702  0.87811115  0.75748340    -0.72000
O1926       O  0.59733617  0.88639659  0.70725214    -0.84100
Zr1927     Zr  0.55053120  0.88567487  0.75223993     2.26400
Zr1928     Zr  0.57466388  0.86149489  0.78684477     2.06300
Zr1929     Zr  0.56847210  0.87941784  0.68463343     2.10000
Zr1930     Zr  0.53979179  0.83318024  0.72839665     1.78800
O1931       O  0.58215924  0.90787154  0.65654265    -0.92900
O1932       O  0.52514513  0.80990408  0.76435024    -0.40800
O1933       O  0.54280104  0.86337383  0.71579032    -0.77400
O1934       O  0.54562000  0.85476522  0.76495751    -0.96100
O1935       O  0.57891139  0.89193744  0.77473451    -0.89400
O1936       O  0.57572689  0.90133871  0.72063826    -0.92200
C1937       C  0.56238578  0.80800231  0.70874926     1.01500
C1938       C  0.60686149  0.87699259  0.65757135     1.14500
C1939       C  0.60722274  0.84617114  0.78221545     1.05200
O1940       O  0.55528392  0.83321454  0.81404546    -0.94400
O1941       O  0.55801953  0.86880757  0.81999279    -0.90100
O1942       O  0.54672581  0.88673408  0.80072330    -0.83300
C1943       C  0.54977021  0.87880191  0.82101833     1.11900
O1944       O  0.63700857  0.91594220  0.73425492    -0.96300
Zr1945     Zr  0.60415780  0.90777502  0.74366525     1.88900
O1946       O  0.56538592  0.92033432  0.75832781    -0.73000
O1947       O  0.59711484  0.88006263  0.82216021    -0.52300
O1948       O  0.62202272  0.92097996  0.78486897    -0.96900
O1949       O  0.62015653  0.93374883  0.71160407    -0.54200
O1950       O  0.59757781  0.93245261  0.75762706    -0.73500
C1951       C  0.58273494  0.93419429  0.76012809     0.98800
O1952       O  0.51788660  0.87743000  0.76400543    -0.62300
O1953       O  0.55005860  0.85980539  0.64690453    -0.57100
O1954       O  0.53493630  0.89388745  0.71760165    -0.93800
O1955       O  0.54496904  0.88971568  0.67708512    -0.92200
O1956       O  0.52219943  0.81917834  0.68734053    -0.92600
O1957       O  0.50563885  0.82208197  0.73107743    -0.91400
C1958       C  0.53477881  0.89418270  0.69199192     1.17700
H1959       H  0.56348200  0.84140736  0.68188808     0.33600
H1960       H  0.53505499  0.84887753  0.77731399     0.44500
H1961       H  0.57646053  0.91290750  0.71392090     0.38000
H1962       H  0.61324510  0.88099318  0.76610152     0.34500
H1963       H  0.51342628  0.79913670  0.75659073     0.26300
H1964       H  0.59552398  0.87058000  0.83593300     0.32200
H1965       H  0.61281471  0.92159361  0.79733671     0.38100
H1966       H  0.52071608  0.82949972  0.67901976     0.32600
H1967       H  0.55156112  0.86912684  0.63291650     0.31400
H1968       H  0.57851386  0.90299816  0.63809539     0.33100
H1969       H  0.62559457  0.94562599  0.72234760     0.32100
H1970       H  0.50439463  0.82934148  0.74613017     0.36100
H1971       H  0.50978796  0.86865374  0.74970232     0.28800
H1972       H  0.61987633  0.84245785  0.71055828     0.33100
H1973       H  0.64512374  0.92840109  0.74313421     0.35900
H1974       H  0.55743575  0.85389086  0.64011426     0.28500
H1975       H  0.51447154  0.86908345  0.77991306     0.41400
H1976       H  0.54213844  0.83121073  0.81327230     0.31400
H1977       H  0.53380298  0.80464884  0.76701474     0.39100
H1978       H  0.60974124  0.93376907  0.70119244     0.30900
H1979       H  0.60998532  0.88446967  0.81457752     0.31000
H1980       H  0.63276762  0.86426041  0.71762195     0.31200
Zr1981     Zr  0.17976902  0.92141443  0.94798573     2.17500
O1982       O  0.18364010  0.89386846  0.95811101    -0.51100
O1983       O  0.14587106  0.90059787  0.95913550    -0.74300
O1984       O  0.18705512  0.91937231  0.99440663    -0.81100
O1985       O  0.17831546  0.91150391  0.87308248    -0.82800
O1986       O  0.19894918  0.94845076  0.01423244    -0.78500
O1987       O  0.17701755  0.89850561  0.91380292    -0.90100
O1988       O  0.13044136  0.91690436  0.94998723    -0.76100
O1989       O  0.16996698  0.94202826  0.96822342    -0.85600
O1990       O  0.16305830  0.92785151  0.91421730    -0.85200
O1991       O  0.20895360  0.94966825  0.96154934    -0.72000
O1992       O  0.20247554  0.93660855  0.91251426    -0.84100
Zr1993     Zr  0.20515763  0.99277956  0.91172502     2.26400
Zr1994     Zr  0.19889604  0.97062894  0.98085606     2.06300
Zr1995     Zr  0.18583471  0.94395154  0.87949931     2.10000
Zr1996     Zr  0.15357516  0.94854236  0.93394832     1.78800
O1997       O  0.20682116  0.94248693  0.84582059    -0.92900
O1998       O  0.13753520  0.95395031  0.97132200    -0.40800
O1999       O  0.17591727  0.96469196  0.89850779    -0.77400
O2000       O  0.18192790  0.97737861  0.94711661    -0.96100
O2001       O  0.22145697  0.98586024  0.94563320    -0.89400
O2002       O  0.21472117  0.97204902  0.89195605    -0.92200
C2003       C  0.13061451  0.90189185  0.95796031     1.01500
C2004       C  0.17618973  0.89779752  0.88817446     1.14500
C2005       C  0.19426094  0.93065330  0.01441825     1.05200
O2006       O  0.17901573  0.97102796  0.01714220    -0.94400
O2007       O  0.20623679  0.00401358  0.98582189    -0.90100
O2008       O  0.20971969  0.01690882  0.94450807    -0.83300
C2009       C  0.20947325  0.01796873  0.97005822     1.11900
O2010       O  0.24179847  0.94174143  0.92500177    -0.96300
Zr2011     Zr  0.23094295  0.96508145  0.92590483     1.88900
O2012       O  0.24010865  0.01466478  0.90818117    -0.73000
O2013       O  0.22779492  0.98879576  0.00728049    -0.52300
O2014       O  0.25198994  0.96904265  0.96326292    -0.96900
O2015       O  0.25032926  0.96900010  0.88643039    -0.54200
O2016       O  0.25449788  0.99872544  0.92466614    -0.73500
C2017       C  0.25492621  0.01396178  0.91636311     0.98800
O2018       O  0.19607488  0.01537592  0.89422550    -0.62300
O2019       O  0.15755542  0.92852262  0.85118915    -0.57100
O2020       O  0.20224864  0.99621242  0.86358161    -0.93800
O2021       O  0.18822166  0.96631471  0.84585661    -0.92200
O2022       O  0.12961986  0.93448353  0.89879781    -0.92600
O2023       O  0.13943262  0.96801699  0.92176460    -0.91400
C2024       C  0.19491861  0.98437851  0.84399631     1.17700
H2025       H  0.15221521  0.91623499  0.90763846     0.33600
H2026       H  0.17773672  0.98587275  0.95396217     0.44500
H2027       H  0.22272281  0.97803832  0.87659402     0.38000
H2028       H  0.21598267  0.94648612  0.97412359     0.34500
H2029       H  0.12371451  0.94554298  0.96770477     0.26300
H2030       H  0.22309368  0.98926931  0.02535795     0.32200
H2031       H  0.25449611  0.98107516  0.97202586     0.38100
H2032       H  0.11717895  0.92793874  0.90823673     0.32600
H2033       H  0.15215470  0.93717833  0.85153349     0.31400
H2034       H  0.20034878  0.94149574  0.82863001     0.33100
H2035       H  0.25315614  0.98130498  0.87821810     0.32100
H2036       H  0.15044087  0.98116508  0.92014899     0.36100
H2037       H  0.18636786  0.01490211  0.90678671     0.28800
H2038       H  0.17436733  0.88669085  0.97247129     0.33100
H2039       H  0.25595392  0.94928322  0.92520037     0.35900
H2040       H  0.16256976  0.92964036  0.83284511     0.28500
H2041       H  0.20741825  0.02822944  0.89668966     0.41400
H2042       H  0.16997483  0.97428967  0.00850596     0.31400
H2043       H  0.14010363  0.94792276  0.98677789     0.39100
H2044       H  0.24150036  0.95909981  0.87377621     0.30900
H2045       H  0.23328990  0.98028699  0.00915955     0.31000
H2046       H  0.19643326  0.89906102  0.96638436     0.31200
Zr2047     Zr  0.23697844  0.85782622  0.22120082     2.17500
O2048       O  0.20632927  0.85654915  0.21497285    -0.51100
O2049       O  0.21903780  0.82464638  0.20644422    -0.74300
O2050       O  0.23338755  0.86890419  0.17699626    -0.81100
O2051       O  0.22760173  0.84851165  0.29620426    -0.82800
O2052       O  0.26259312  0.88558612  0.15756543    -0.78500
O2053       O  0.21414530  0.85044043  0.25747893    -0.90100
O2054       O  0.23716938  0.81067113  0.21199571    -0.76100
O2055       O  0.25948737  0.85309657  0.19623089    -0.85600
O2056       O  0.24619031  0.84004791  0.24961217    -0.85200
O2057       O  0.26284825  0.88970824  0.21201516    -0.72000
O2058       O  0.25048309  0.87709857  0.26047543    -0.84100
Zr2059     Zr  0.30899659  0.88687055  0.25520083     2.26400
Zr2060     Zr  0.28579468  0.88469512  0.18787182     2.06300
Zr2061     Zr  0.26074974  0.85964563  0.28784285     2.10000
Zr2062     Zr  0.26892263  0.83577954  0.22506073     1.78800
O2063       O  0.25533907  0.87203642  0.32925067    -0.92900
O2064       O  0.27420957  0.82644551  0.18102986    -0.40800
O2065       O  0.28363475  0.85490362  0.26415018    -0.77400
O2066       O  0.29534812  0.86690557  0.21624439    -0.96100
O2067       O  0.29943308  0.90423026  0.22658884    -0.89400
O2068       O  0.28630157  0.89132952  0.27963807    -0.92200
C2069       C  0.22149242  0.81010569  0.20553272     1.01500
C2070       C  0.21359100  0.84727404  0.28271033     1.14500
C2071       C  0.24445193  0.87916305  0.15789956     1.05200
O2072       O  0.28571922  0.86872835  0.14668577    -0.94400
O2073       O  0.31952652  0.89447631  0.18021901    -0.90100
O2074       O  0.33287094  0.89627075  0.22078988    -0.83300
C2075       C  0.33378865  0.89778932  0.19533326     1.11900
O2076       O  0.25124274  0.91637301  0.24757052    -0.96300
Zr2077     Zr  0.27658218  0.90840011  0.25122180     1.88900
O2078       O  0.32849440  0.92152515  0.26032965    -0.73000
O2079       O  0.30123282  0.91558988  0.16534654    -0.52300
O2080       O  0.28405389  0.93556440  0.22242640    -0.96900
O2081       O  0.27068172  0.91872384  0.29414158    -0.54200
O2082       O  0.30847122  0.93368945  0.26288682    -0.73500
C2083       C  0.32519354  0.93548701  0.26280382     0.98800
O2084       O  0.33377486  0.87927853  0.26729812    -0.62300
O2085       O  0.25027213  0.82819872  0.30700480    -0.57100
O2086       O  0.31434704  0.88401542  0.30294303    -0.93800
O2087       O  0.28482602  0.86503619  0.32046012    -0.92200
O2088       O  0.26272086  0.80946215  0.25488053    -0.92600
O2089       O  0.29235270  0.82514045  0.22415740    -0.91400
C2090       C  0.30307742  0.87461822  0.32240288     1.17700
H2091       H  0.23536893  0.82800773  0.25504514     0.33600
H2092       H  0.30466892  0.86457985  0.20755366     0.44500
H2093       H  0.29165944  0.89831840  0.29598213     0.38000
H2094       H  0.25855163  0.89701449  0.20182690     0.34500
H2095       H  0.26281436  0.82391750  0.17046007     0.26300
H2096       H  0.29237079  0.92062690  0.16776469     0.32200
H2097       H  0.29552597  0.93777089  0.21232240     0.38100
H2098       H  0.27019220  0.81566994  0.27117287     0.32600
H2099       H  0.26215700  0.82840608  0.31253989     0.31400
H2100       H  0.24966500  0.86096320  0.34157177     0.33100
H2101       H  0.28194526  0.92165184  0.30529420     0.32100
H2102       H  0.30318229  0.83475842  0.23492821     0.36100
H2103       H  0.33305625  0.87014281  0.25350995     0.28800
H2104       H  0.20085436  0.84943357  0.19817215     0.33100
H2105       H  0.24000866  0.90450405  0.24098416     0.35900
H2106       H  0.24398041  0.82817233  0.32397697     0.28500
H2107       H  0.34615652  0.89108258  0.26413427     0.41400
H2108       H  0.29546006  0.87906098  0.13536330     0.31400
H2109       H  0.28477409  0.83830089  0.17324653     0.39100
H2110       H  0.26005591  0.90699663  0.30212221     0.30900
H2111       H  0.31240526  0.92394675  0.17662626     0.31000
H2112       H  0.20947362  0.86986267  0.21121323     0.31200
Zr2113     Zr  0.40912271  0.94497130  0.61464121     2.17500
O2114       O  0.43696736  0.97675537  0.62073766    -0.51100
O2115       O  0.43024422  0.93207819  0.62463511    -0.74300
O2116       O  0.41278004  0.95671157  0.66021897    -0.81100
O2117       O  0.41757338  0.94908628  0.53943609    -0.82800
O2118       O  0.38433771  0.94039118  0.68179235    -0.78500
O2119       O  0.43056894  0.96387027  0.57876213    -0.90100
O2120       O  0.41385854  0.90003128  0.61767215    -0.76100
O2121       O  0.38902491  0.91571862  0.63757714    -0.85600
O2122       O  0.40177181  0.92009732  0.58328478    -0.85200
O2123       O  0.38155565  0.94711738  0.62830565    -0.72000
O2124       O  0.39328015  0.95077668  0.57835690    -0.84100
Zr2125     Zr  0.33699062  0.89805345  0.58261567     2.26400
Zr2126     Zr  0.36116377  0.91731060  0.65039275     2.06300
Zr2127     Zr  0.38509758  0.92508816  0.54794599     2.10000
Zr2128     Zr  0.38123616  0.89103398  0.60557678     1.78800
O2129       O  0.38637774  0.94443210  0.50982520    -0.92900
O2130       O  0.37737237  0.87258616  0.64590116    -0.40800
O2131       O  0.36439047  0.89558902  0.56951532    -0.77400
O2132       O  0.35317457  0.89203177  0.61877774    -0.96100
O2133       O  0.34509629  0.92291650  0.61438888    -0.89400
O2134       O  0.35767406  0.92724446  0.56040671    -0.92200
C2135       C  0.42915306  0.91560891  0.62377777     1.01500
C2136       C  0.43105568  0.96210058  0.55336013     1.14500
C2137       C  0.40207888  0.95345735  0.68076242     1.05200
O2138       O  0.36255558  0.89820929  0.68698740    -0.94400
O2139       O  0.32807852  0.89244917  0.65868045    -0.90100
O2140       O  0.31390061  0.88169391  0.61823856    -0.83300
C2141       C  0.31359118  0.88162953  0.64389999     1.11900
O2142       O  0.38848133  0.98541307  0.60168860    -0.96300
Zr2143     Zr  0.36548927  0.95202281  0.59188338     1.88900
O2144       O  0.31524575  0.91103392  0.57849296    -0.73000
O2145       O  0.34495916  0.93043858  0.67678232    -0.52300
O2146       O  0.35281732  0.96522372  0.62454960    -0.96900
O2147       O  0.37000330  0.97050682  0.55138204    -0.54200
O2148       O  0.33332119  0.94350443  0.57892902    -0.73500
C2149       C  0.31727488  0.92790162  0.57703321     0.98800
O2150       O  0.31456446  0.86504263  0.56958446    -0.62300
O2151       O  0.39862559  0.90842674  0.52357197    -0.57100
O2152       O  0.33215165  0.89181366  0.53405689    -0.93800
O2153       O  0.36186152  0.90461336  0.51611262    -0.92200
O2154       O  0.39219882  0.87774436  0.57063260    -0.92600
O2155       O  0.35926541  0.85707002  0.59850394    -0.91400
C2156       C  0.34366148  0.89479740  0.51436680     1.17700
H2157       H  0.41314181  0.92040211  0.57651915     0.33600
H2158       H  0.34469152  0.87979071  0.62685412     0.44500
H2159       H  0.35154494  0.92895117  0.54494423     0.38000
H2160       H  0.38505706  0.95789516  0.63997246     0.34500
H2161       H  0.38138861  0.86325206  0.64076987     0.26300
H2162       H  0.34659828  0.92773500  0.69556836     0.32200
H2163       H  0.34134582  0.95398884  0.63201395     0.38100
H2164       H  0.39876318  0.87189610  0.58016614     0.32600
H2165       H  0.38807578  0.89503424  0.52188712     0.31400
H2166       H  0.39432802  0.94256455  0.49643052     0.33100
H2167       H  0.35957814  0.96184564  0.53923158     0.32100
H2168       H  0.35093332  0.85661552  0.58367984     0.36100
H2169       H  0.32228458  0.86091585  0.55909608     0.28800
H2170       H  0.44514447  0.97520431  0.63407594     0.33100
H2171       H  0.38220122  0.99271960  0.59609601     0.35900
H2172       H  0.40063329  0.91362198  0.50521969     0.28500
H2173       H  0.31148071  0.85731145  0.58607421     0.41400
H2174       H  0.35834723  0.90248589  0.70282153     0.31400
H2175       H  0.38760449  0.88159174  0.65802880     0.39100
H2176       H  0.38175356  0.97176441  0.54321033     0.30900
H2177       H  0.35302390  0.94449739  0.67503821     0.31000
H2178       H  0.43227992  0.98460438  0.62963894     0.31200
Zr2179     Zr  0.46885298  0.06606831  0.88822681     2.17500
O2180       O  0.46887971  0.03618185  0.88020676    -0.51100
O2181       O  0.50270797  0.07956372  0.87670977    -0.74300
O2182       O  0.45908601  0.05274770  0.84357234    -0.81100
O2183       O  0.47043672  0.06135200  0.96361501    -0.82800
O2184       O  0.44592290  0.06791174  0.82146298    -0.78500
O2185       O  0.47061251  0.04683820  0.92497216    -0.90100
O2186       O  0.51807039  0.11169161  0.88229599    -0.76100
O2187       O  0.47645706  0.09436987  0.86358498    -0.85600
O2188       O  0.48686074  0.09213145  0.91777674    -0.85200
O2189       O  0.43847029  0.06292991  0.87560234    -0.72000
O2190       O  0.44783828  0.06115094  0.92511732    -0.84100
Zr2191     Zr  0.44280659  0.11299107  0.91824948     2.26400
Zr2192     Zr  0.44640196  0.09184946  0.85151315     2.06300
Zr2193     Zr  0.46578820  0.08786904  0.95379237     2.10000
Zr2194     Zr  0.49387882  0.12024907  0.89366204     1.78800
O2195       O  0.45183054  0.07164693  0.99574401    -0.92900
O2196       O  0.50653053  0.13620398  0.85115481    -0.40800
O2197       O  0.47329076  0.11656350  0.93052486    -0.77400
O2198       O  0.46415913  0.11831990  0.88124539    -0.96100
O2199       O  0.42569883  0.08708164  0.88820089    -0.89400
O2200       O  0.43561183  0.08477812  0.94249319    -0.92200
C2201       C  0.51794920  0.09611310  0.87652444     1.01500
C2202       C  0.47112685  0.04806765  0.95062237     1.14500
C2203       C  0.45077876  0.05501200  0.82320357     1.05200
O2204       O  0.46492051  0.10920351  0.81248211    -0.94400
O2205       O  0.43694385  0.11603897  0.84273256    -0.90100
O2206       O  0.43367091  0.12743168  0.88282030    -0.83300
C2207       C  0.43302530  0.12689013  0.85720100     1.11900
O2208       O  0.40698279  0.02514459  0.91909216    -0.96300
Zr2209     Zr  0.41820928  0.05905558  0.91257294     1.88900
O2210       O  0.40822983  0.10051940  0.92286081    -0.73000
O2211       O  0.41623745  0.07653843  0.82694901    -0.52300
O2212       O  0.39493346  0.03848508  0.87942011    -0.96900
O2213       O  0.40074361  0.04760312  0.95452908    -0.54200
O2214       O  0.39470569  0.06924706  0.91108110    -0.73500
C2215       C  0.39374157  0.08428807  0.91639191     0.98800
O2216       O  0.45482716  0.14676188  0.92798824    -0.62300
O2217       O  0.49728632  0.10460181  0.97458235    -0.57100
O2218       O  0.44434623  0.12030950  0.96612112    -0.93800
O2219       O  0.46203337  0.10848723  0.98476561    -0.92200
O2220       O  0.51765354  0.13629262  0.92859660    -0.92600
O2221       O  0.50770453  0.15485530  0.89515820    -0.91400
C2222       C  0.45315525  0.11790865  0.98591373     1.17700
H2223       H  0.49820579  0.09227453  0.92429191     0.33600
H2224       H  0.46731558  0.13020953  0.87246818     0.44500
H2225       H  0.42825308  0.08353647  0.95831024     0.38000
H2226       H  0.43103946  0.05167179  0.86490405     0.34500
H2227       H  0.51053389  0.12802562  0.84161283     0.26300
H2228       H  0.41987992  0.08014069  0.80807385     0.32200
H2229       H  0.39317873  0.04735372  0.86766732     0.38100
H2230       H  0.52965549  0.13753030  0.92141624     0.32600
H2231       H  0.49962764  0.11768889  0.97801154     0.31400
H2232       H  0.46204090  0.07824933  0.00922053     0.33100
H2233       H  0.38823285  0.03655179  0.94944608     0.32100
H2234       H  0.49719716  0.15679087  0.90166288     0.36100
H2235       H  0.46633167  0.15069412  0.93914953     0.28800
H2236       H  0.47757021  0.03859576  0.86490300     0.33100
H2237       H  0.41584758  0.02475801  0.93241291     0.35900
H2238       H  0.49542327  0.09878934  0.99251653     0.28500
H2239       H  0.46007860  0.15354060  0.91091132     0.41400
H2240       H  0.45547075  0.10948514  0.80015786     0.31400
H2241       H  0.49518867  0.13449330  0.84119877     0.39100
H2242       H  0.39754525  0.05746094  0.96007706     0.30900
H2243       H  0.41169088  0.06265095  0.82760582     0.31000
H2244       H  0.45593158  0.02681058  0.87367882     0.31200
Zr2245     Zr  0.26370905  0.08862855  0.54929809     2.17500
O2246       O  0.29404866  0.11793454  0.54135032    -0.51100
O2247       O  0.24952831  0.10791106  0.53578121    -0.74300
O2248       O  0.27522059  0.09158517  0.50383238    -0.81100
O2249       O  0.26930695  0.09746945  0.62422934    -0.82800
O2250       O  0.25868990  0.06316427  0.48219804    -0.78500
O2251       O  0.28190455  0.11171291  0.58466445    -0.90100
O2252       O  0.21759502  0.09091815  0.54283483    -0.76100
O2253       O  0.23474222  0.06733328  0.52650855    -0.85600
O2254       O  0.23857131  0.08080245  0.58031879    -0.85200
O2255       O  0.26663037  0.06124670  0.53667350    -0.72000
O2256       O  0.27082381  0.07401617  0.58593400    -0.84100
Zr2257     Zr  0.21833662  0.01649883  0.58355384     2.26400
Zr2258     Zr  0.23693453  0.03957176  0.51489173     2.06300
Zr2259     Zr  0.24488951  0.06521103  0.61609710     2.10000
Zr2260     Zr  0.20975505  0.05931439  0.55789261     1.78800
O2261       O  0.26434054  0.06559962  0.65350302    -0.92900
O2262       O  0.19274792  0.05538478  0.51597593    -0.40800
O2263       O  0.21530183  0.04382239  0.59500655    -0.77400
O2264       O  0.21159310  0.03143072  0.54641003    -0.96100
O2265       O  0.24333481  0.02481501  0.55179938    -0.89400
O2266       O  0.24759209  0.03790546  0.60516511    -0.92200
C2267       C  0.23278335  0.10609519  0.53542421     1.01500
C2268       C  0.28119732  0.11175274  0.61034024     1.14500
C2269       C  0.27166680  0.08100957  0.48309192     1.05200
O2270       O  0.21618751  0.03785464  0.47837565    -0.94400
O2271       O  0.21211946  0.00576888  0.50843819    -0.90100
O2272       O  0.20220535  0.99203156  0.54931453    -0.83300
C2273       C  0.20155535  0.99134972  0.52364632     1.11900
O2274       O  0.30614316  0.06876451  0.56453170    -0.96300
Zr2275     Zr  0.27250288  0.04619781  0.57365251     1.88900
O2276       O  0.23229565  0.99569677  0.58913112    -0.73000
O2277       O  0.25227954  0.02454932  0.49092323    -0.52300
O2278       O  0.28688004  0.03443978  0.54149264    -0.96900
O2279       O  0.29094094  0.05121213  0.61445449    -0.54200
O2280       O  0.26467817  0.01424939  0.58637015    -0.73500
C2281       C  0.24934619  0.99810885  0.58939707     0.98800
O2282       O  0.18488781  0.99420935  0.59452176    -0.62300
O2283       O  0.23038972  0.08036713  0.64155641    -0.57100
O2284       O  0.21163489  0.01288580  0.63238874    -0.93800
O2285       O  0.22479329  0.04293691  0.64919222    -0.92200
O2286       O  0.19479818  0.06973376  0.59109341    -0.92600
O2287       O  0.17541242  0.03792366  0.56287512    -0.91400
C2288       C  0.21477687  0.02481049  0.65167225     1.17700
H2289       H  0.23848601  0.09209276  0.58660755     0.33600
H2290       H  0.19943153  0.02250308  0.53850023     0.44500
H2291       H  0.24949828  0.03215161  0.62091285     0.38000
H2292       H  0.27733201  0.06487182  0.52481617     0.34500
H2293       H  0.18475855  0.06135362  0.51915221     0.26300
H2294       H  0.24732604  0.02291915  0.47247360     0.32200
H2295       H  0.27591455  0.02393346  0.53198783     0.38100
H2296       H  0.20333825  0.08374246  0.59262270     0.32600
H2297       H  0.21643979  0.07176965  0.63939921     0.31400
H2298       H  0.25979683  0.06991221  0.66893388     0.33100
H2299       H  0.28252723  0.04058922  0.62651637     0.32100
H2300       H  0.17358278  0.02486033  0.56170410     0.36100
H2301       H  0.18113021  0.00111891  0.60729836     0.28800
H2302       H  0.29165551  0.12461064  0.52655504     0.33100
H2303       H  0.31334761  0.06289629  0.57212694     0.35900
H2304       H  0.23298677  0.07889633  0.66045228     0.28500
H2305       H  0.17758599  0.99342557  0.57823335     0.41400
H2306       H  0.21667933  0.02885036  0.46539789     0.31400
H2307       H  0.20263114  0.06411386  0.50320362     0.39100
H2308       H  0.29176889  0.06275231  0.62271261     0.30900
H2309       H  0.26590708  0.03458419  0.48952450     0.31000
H2310       H  0.30285155  0.11387451  0.53394335     0.31200
Zr2311     Zr  0.38635114  0.15159675  0.27767853     2.17500
O2312       O  0.35648133  0.15205908  0.28293365    -0.51100
O2313       O  0.40128653  0.18520078  0.29079457    -0.74300
O2314       O  0.37260577  0.14222984  0.32215243    -0.81100
O2315       O  0.37960513  0.15197652  0.20185046    -0.82800
O2316       O  0.38672106  0.12766386  0.34357019    -0.78500
O2317       O  0.36867539  0.15609925  0.24168339    -0.90100
O2318       O  0.43339325  0.19861530  0.28679798    -0.76100
O2319       O  0.41452733  0.15807467  0.30163668    -0.85600
O2320       O  0.41233039  0.16862005  0.24765773    -0.85200
O2321       O  0.38144482  0.12047858  0.28973827    -0.72000
O2322       O  0.38003900  0.13069532  0.24035794    -0.84100
Zr2323     Zr  0.43015229  0.12281145  0.24611260     2.26400
Zr2324     Zr  0.41027580  0.12730236  0.31321573     2.06300
Zr2325     Zr  0.40653672  0.14751387  0.21103763     2.10000
Zr2326     Zr  0.44038097  0.17447652  0.27111886     1.78800
O2327       O  0.39133780  0.13154958  0.16940862    -0.92900
O2328       O  0.45858725  0.18670506  0.31229047    -0.40800
O2329       O  0.43512809  0.15382359  0.23379959    -0.77400
O2330       O  0.43683484  0.14417637  0.28342163    -0.96100
O2331       O  0.40402446  0.10636634  0.27606263    -0.89400
O2332       O  0.40214651  0.11680198  0.22236027    -0.92200
C2333       C  0.41837383  0.19951635  0.29240330     1.01500
C2334       C  0.36829796  0.15519804  0.21609024     1.14500
C2335       C  0.37444261  0.13341148  0.34224743     1.05200
O2336       O  0.42923575  0.14727898  0.35025038    -0.94400
O2337       O  0.43312321  0.11605077  0.32133846    -0.90100
O2338       O  0.44471101  0.11345939  0.28109995    -0.83300
C2339       C  0.44387808  0.11213341  0.30666836     1.11900
O2340       O  0.34238156  0.09113476  0.25202415    -0.96300
Zr2341     Zr  0.37614710  0.10033284  0.25208628     1.88900
O2342       O  0.41575526  0.08805172  0.24149092    -0.73000
O2343       O  0.39665466  0.09829131  0.34017922    -0.52300
O2344       O  0.35917949  0.07606662  0.28615389    -0.96900
O2345       O  0.35995109  0.08765173  0.20959390    -0.54200
O2346       O  0.38349999  0.07559160  0.24121942    -0.73500
C2347       C  0.39848415  0.07398172  0.23989651     0.98800
O2348       O  0.46328953  0.13212128  0.23577267    -0.62300
O2349       O  0.42147096  0.17900425  0.19031357    -0.57100
O2350       O  0.43591196  0.12398930  0.19775691    -0.93800
O2351       O  0.42891574  0.14598718  0.18081260    -0.92200
O2352       O  0.45570546  0.20099313  0.23962797    -0.92600
O2353       O  0.47426204  0.18545713  0.26438413    -0.91400
C2354       C  0.43554919  0.13456701  0.17873107     1.17700
H2355       H  0.41285445  0.18026179  0.24172418     0.33600
H2356       H  0.44858013  0.14676038  0.29207908     0.44500
H2357       H  0.40027222  0.10915346  0.20661363     0.38000
H2358       H  0.37015191  0.11337829  0.30056938     0.34500
H2359       H  0.46666371  0.20065835  0.30933151     0.26300
H2360       H  0.39971970  0.10283318  0.35884901     0.32200
H2361       H  0.35395532  0.06368169  0.27668758     0.38100
H2362       H  0.44546172  0.20337231  0.23325557     0.32600
H2363       H  0.43517073  0.18286165  0.18884876     0.31400
H2364       H  0.39583450  0.14191495  0.15599048     0.33100
H2365       H  0.36658495  0.08146991  0.20114782     0.32100
H2366       H  0.47697448  0.17697549  0.27558876     0.36100
H2367       H  0.46762963  0.14286359  0.22299922     0.28800
H2368       H  0.35875923  0.16121507  0.29755328     0.33100
H2369       H  0.33520844  0.07699202  0.25084745     0.35900
H2370       H  0.41674861  0.17657032  0.17169872     0.28500
H2371       H  0.47065363  0.13829411  0.25216153     0.41400
H2372       H  0.42793609  0.13809877  0.36433711     0.31400
H2373       H  0.44908517  0.18555479  0.32575234     0.39100
H2374       H  0.36354082  0.09911603  0.19850865     0.30900
H2375       H  0.38262385  0.09270638  0.33875033     0.31000
H2376       H  0.34701284  0.13934709  0.29006736     0.31200
C2377       C  0.29896886  0.08729740  0.41841621    -0.28000
C2378       C  0.31349103  0.10653568  0.42023886     0.05600
C2379       C  0.31262449  0.11788293  0.44085718     0.25200
C2380       C  0.29824748  0.10970249  0.46022730    -0.12500
C2381       C  0.28445382  0.09002400  0.45960309    -0.26400
C2382       C  0.28462212  0.07906513  0.43781690     0.36100
C2383       C  0.32990579  0.11423366  0.40139791     0.05600
F2384       F  0.32631843  0.13656865  0.44327484    -0.20200
H2385       H  0.29847055  0.11870784  0.47641029     0.15500
F2386       F  0.27152073  0.06018909  0.43575182    -0.23900
H2387       H  0.29905260  0.07843138  0.40223990     0.17300
C2388       C  0.33976745  0.10420173  0.39682611     0.25300
C2389       C  0.35475062  0.11101323  0.37841692    -0.12400
C2390       C  0.36028081  0.12796819  0.36412514    -0.26500
C2391       C  0.35068542  0.13825178  0.36909833     0.36200
C2392       C  0.33572117  0.13146201  0.38767183    -0.28100
F2393       F  0.33496882  0.08780042  0.41027556    -0.20200
H2394       H  0.36165206  0.10264312  0.37475451     0.15500
F2395       F  0.35561521  0.15475740  0.35585708    -0.23900
H2396       H  0.32833559  0.13942215  0.39082180     0.17300
C2397       C  0.45782945  0.14869939  0.11058428    -0.28000
C2398       C  0.44678676  0.13164255  0.09642966     0.05600
C2399       C  0.43397300  0.11497815  0.11036075     0.25200
C2400       C  0.43161604  0.11564146  0.13792390    -0.12500
C2401       C  0.44186297  0.13295019  0.15183755    -0.26400
C2402       C  0.45520866  0.14944447  0.13805056     0.36100
C2403       C  0.44908573  0.13107965  0.06727618     0.05600
F2404       F  0.42363877  0.09813925  0.09721960    -0.20200
H2405       H  0.42101517  0.10289267  0.14815297     0.15500
F2406       F  0.46528203  0.16636918  0.15106960    -0.23900
H2407       H  0.46802062  0.16156792  0.10017924     0.17300
C2408       C  0.43368927  0.12624271  0.04976732     0.25300
C2409       C  0.43550011  0.12347544  0.02255719    -0.12400
C2410       C  0.45263274  0.12540165  0.01259603    -0.26500
C2411       C  0.46837266  0.13141915  0.02998251     0.36200
C2412       C  0.46658627  0.13433638  0.05701212    -0.28100
F2413       F  0.41680608  0.12376923  0.05910888    -0.20200
H2414       H  0.42318542  0.11871068  0.00963333     0.15500
F2415       F  0.48526922  0.13364200  0.02108008    -0.23900
H2416       H  0.47861700  0.13823732  0.07021546     0.17300
C2417       C  0.28627030  0.94896726  0.55848894    -0.28000
C2418       C  0.27303002  0.94237496  0.57950250     0.05600
C2419       C  0.27231036  0.92824683  0.59672743     0.25200
C2420       C  0.28563957  0.92194697  0.59401431    -0.12500
C2421       C  0.30011636  0.93002430  0.57458060    -0.26400
C2422       C  0.29991109  0.94314992  0.55626956     0.36100
C2423       C  0.26362482  0.95360762  0.58643255     0.05600
F2424       F  0.25965598  0.92157846  0.61725249    -0.20200
H2425       H  0.28567817  0.91201382  0.60853516     0.15500
F2426       F  0.31372332  0.95137563  0.53735995    -0.23900
H2427       H  0.28713761  0.95996510  0.54518860     0.17300
C2428       C  0.27278005  0.96877795  0.60463795     0.25300
C2429       C  0.26711167  0.98251935  0.60701488    -0.12400
C2430       C  0.25199043  0.98125987  0.59158194    -0.26500
C2431       C  0.24211412  0.96550932  0.57437975     0.36200
C2432       C  0.24802370  0.95186777  0.57166873    -0.28100
F2433       F  0.28834453  0.97121837  0.61838320    -0.20200
H2434       H  0.27520738  0.99473963  0.61992229     0.15500
F2435       F  0.22806588  0.96439672  0.55826628    -0.23900
H2436       H  0.24113222  0.94057589  0.55701452     0.17300
C2437       C  0.43722937  0.99402836  0.72527630    -0.28000
C2438       C  0.42485251  0.99515573  0.74388028     0.05600
C2439       C  0.40528819  0.98140188  0.74317552     0.25200
C2440       C  0.39816621  0.96726720  0.72345361    -0.12500
C2441       C  0.41036255  0.96661340  0.70391501    -0.26400
C2442       C  0.43013744  0.97997062  0.70543680     0.36100
C2443       C  0.43226410  0.01109326  0.76330209     0.05600
F2444       F  0.39302092  0.98173495  0.76144104    -0.20200
H2445       H  0.38293045  0.95725360  0.72295572     0.15500
F2446       F  0.44264752  0.97982590  0.68745830    -0.23900
H2447       H  0.45236015  0.00447564  0.72556064     0.17300
C2448       C  0.44754731  0.01477907  0.78034570     0.25300
C2449       C  0.45380176  0.02936894  0.79934977    -0.12400
C2450       C  0.44526778  0.04087669  0.80128465    -0.26500
C2451       C  0.43028927  0.03745980  0.78361398     0.36200
C2452       C  0.42391608  0.02271958  0.76486443    -0.28100
F2453       F  0.45609525  0.00395100  0.77910485    -0.20200
H2454       H  0.46524927  0.03153632  0.81274410     0.15500
F2455       F  0.42118203  0.04774963  0.78511064    -0.23900
H2456       H  0.41229215  0.02025932  0.75161775     0.17300
C2457       C  0.31309518  0.87924824  0.45147945    -0.28000
C2458       C  0.32634694  0.87986772  0.43258280     0.05600
C2459       C  0.34426354  0.88330918  0.44139807     0.25200
C2460       C  0.34910854  0.88685748  0.46830602    -0.12500
C2461       C  0.33634741  0.88735453  0.48716683    -0.26400
C2462       C  0.31797924  0.88287542  0.47858955     0.36100
C2463       C  0.32162656  0.87744177  0.40369753     0.05600
F2464       F  0.35719528  0.88343292  0.42392729    -0.20200
H2465       H  0.36325075  0.88983149  0.47422267     0.15500
F2466       F  0.30510748  0.88289547  0.49600669    -0.23900
H2467       H  0.29915608  0.87659587  0.44507400     0.17300
C2468       C  0.30447536  0.86185469  0.39470641     0.25300
C2469       C  0.29915960  0.86065385  0.36797625    -0.12400
C2470       C  0.31088297  0.87485812  0.34941685    -0.26500
C2471       C  0.32878095  0.88973744  0.35803827     0.36200
C2472       C  0.33400143  0.89103594  0.38500051    -0.28100
F2473       F  0.29280238  0.84780133  0.41183749    -0.20200
H2474       H  0.28551830  0.84870412  0.36193132     0.15500
F2475       F  0.34075817  0.90358062  0.34090356    -0.23900
H2476       H  0.34742013  0.90310243  0.39147850     0.17300
C2477       C  0.36924268  0.98044598  0.24004931    -0.28000
C2478       C  0.36842773  0.99435185  0.25586225     0.05600
C2479       C  0.35473080  0.98855954  0.27633786     0.25200
C2480       C  0.34124963  0.96915303  0.27971310    -0.12500
C2481       C  0.34161858  0.95522862  0.26325596    -0.26400
C2482       C  0.35615495  0.96099972  0.24394879     0.36100
C2483       C  0.37937160  0.01471949  0.24807631     0.05600
F2484       F  0.35358357  0.00178427  0.29179772    -0.20200
H2485       H  0.33006043  0.96504512  0.29448377     0.15500
F2486       F  0.35661993  0.94800498  0.22719973    -0.23900
H2487       H  0.37946167  0.98472899  0.22385555     0.17300
C2488       C  0.39528759  0.02813876  0.26274740     0.25300
C2489       C  0.40315171  0.04777829  0.25775719    -0.12400
C2490       C  0.39489331  0.05416674  0.23856791    -0.26500
C2491       C  0.37979527  0.04058686  0.22273059     0.36200
C2492       C  0.37227920  0.02105669  0.22732630    -0.28100
F2493       F  0.40248215  0.02230575  0.28280259    -0.20200
H2494       H  0.41455698  0.05797929  0.27046554     0.15500
F2495       F  0.37139196  0.04621468  0.20410499    -0.23900
H2496       H  0.36002492  0.01085308  0.21583956     0.17300
C2497       C  0.18155108  0.98534010  0.77178668    -0.28000
C2498       C  0.19687838  0.00276264  0.76287820     0.05600
C2499       C  0.21040044  0.01514415  0.78176441     0.25200
C2500       C  0.20912020  0.00960681  0.80855207    -0.12500
C2501       C  0.19445162  0.99164798  0.81700229    -0.26400
C2502       C  0.18030504  0.97979314  0.79847163     0.36100
C2503       C  0.19917952  0.00747969  0.73382680     0.05600
F2504       F  0.22551468  0.03211367  0.77411868    -0.20200
H2505       H  0.22018035  0.01895620  0.82237507     0.15500
F2506       F  0.16535853  0.96266233  0.80605154    -0.23900
H2507       H  0.17066029  0.97581314  0.75790363     0.17300
C2508       C  0.19833661  0.99425801  0.71463494     0.25300
C2509       C  0.20241426  0.99950530  0.68766879    -0.12400
C2510       C  0.20731582  0.01798441  0.67920074    -0.26500
C2511       C  0.20694139  0.03078618  0.69831230     0.36200
C2512       C  0.20298815  0.02555277  0.72515313    -0.28100
F2513       F  0.19456226  0.97654679  0.72212869    -0.20200
H2514       H  0.20255990  0.98936144  0.67365256     0.15500
F2515       F  0.21080445  0.04863721  0.69133635    -0.23900
H2516       H  0.20318441  0.03580508  0.73931145     0.17300
C2517       C  0.30477066  0.04974498  0.93958528    -0.28000
C2518       C  0.31353019  0.05932325  0.91577567     0.05600
C2519       C  0.30186120  0.05593778  0.89308647     0.25200
C2520       C  0.28228018  0.04220319  0.89374630    -0.12500
C2521       C  0.27399636  0.03158013  0.91698597    -0.26400
C2522       C  0.28524261  0.03609667  0.94022582     0.36100
C2523       C  0.33488677  0.06986013  0.91358300     0.05600
F2524       F  0.30962803  0.06514871  0.86980785    -0.20200
H2525       H  0.27391520  0.03899578  0.87563012     0.15500
F2526       F  0.27743548  0.02666148  0.96337154    -0.23900
H2527       H  0.31326905  0.05183784  0.95731415     0.17300
C2528       C  0.34695754  0.08226961  0.93378103     0.25300
C2529       C  0.36665776  0.08840416  0.93380179    -0.12400
C2530       C  0.37448117  0.08214993  0.91383315    -0.26500
C2531       C  0.36275424  0.07127065  0.89251339     0.36200
C2532       C  0.34328750  0.06523463  0.89246225    -0.28100
F2533       F  0.33964254  0.08789534  0.95394136    -0.20200
H2534       H  0.37549073  0.09697638  0.95024062     0.15500
F2535       F  0.36992847  0.06546876  0.87234618    -0.23900
H2536       H  0.33454763  0.05567849  0.87671818     0.17300
C2537       C  0.19732092  0.89574465  0.06223101    -0.28000
C2538       C  0.21219005  0.90816409  0.07920502     0.05600
C2539       C  0.21989422  0.92804402  0.07619240     0.25200
C2540       C  0.21326272  0.93524846  0.05598232    -0.12500
C2541       C  0.19888560  0.92282811  0.03829464    -0.26400
C2542       C  0.19072973  0.90290388  0.04197044     0.36100
C2543       C  0.22020881  0.90025599  0.09892665     0.05600
F2544       F  0.23394984  0.94054172  0.09264369    -0.20200
H2545       H  0.21994342  0.95060887  0.05356020     0.15500
F2546       F  0.17668939  0.89024483  0.02562623    -0.23900
H2547       H  0.19123904  0.88040807  0.06404498     0.17300
C2548       C  0.20831644  0.88571985  0.11683564     0.25300
C2549       C  0.21615681  0.87845752  0.13529168    -0.12400
C2550       C  0.23600099  0.88525390  0.13602664    -0.26500
C2551       C  0.24773812  0.89928856  0.11718823     0.36200
C2552       C  0.23990140  0.90675364  0.09913744    -0.28100
F2553       F  0.18915514  0.87889742  0.11697593    -0.20200
H2554       H  0.20665491  0.86770653  0.14934541     0.15500
F2555       F  0.26689906  0.90619844  0.11638609    -0.23900
H2556       H  0.24927373  0.91758101  0.08505311     0.17300
C2557       C  0.50233606  0.89990124  0.64188841    -0.28000
C2558       C  0.49430634  0.90852854  0.65772876     0.05600
C2559       C  0.50037749  0.91307138  0.68438364     0.25200
C2560       C  0.51392582  0.90890395  0.69485475    -0.12500
C2561       C  0.52165089  0.89985910  0.67929796    -0.26400
C2562       C  0.51581194  0.89554708  0.65247690     0.36100
C2563       C  0.47858190  0.91128065  0.64704830     0.05600
F2564       F  0.49248580  0.92057058  0.70092125    -0.20200
H2565       H  0.51803265  0.91240929  0.71555650     0.15500
F2566       F  0.52244983  0.88642563  0.63674352    -0.23900
H2567       H  0.49790134  0.89620431  0.62132327     0.17300
C2568       C  0.47801464  0.92824239  0.65158905     0.25300
C2569       C  0.46225357  0.92978188  0.64322307    -0.12400
C2570       C  0.44658190  0.91441743  0.63043687    -0.26500
C2571       C  0.44762975  0.89779847  0.62481005     0.36200
C2572       C  0.46341979  0.89633299  0.63303164    -0.28100
F2573       F  0.49260346  0.94332799  0.66429343    -0.20200
H2574       H  0.46211850  0.94288216  0.64747157     0.15500
F2575       F  0.43333542  0.88276548  0.61162200    -0.23900
H2576       H  0.46345942  0.88313359  0.62918025     0.17300
C2577       C  0.67658536  0.92272816  0.57229439    -0.28000
C2578       C  0.66491588  0.90283728  0.57486738     0.05600
C2579       C  0.66825792  0.89082607  0.55805948     0.25200
C2580       C  0.68266065  0.89871261  0.53858713    -0.12500
C2581       C  0.69414570  0.91870851  0.53564382    -0.26400
C2582       C  0.69109928  0.93062073  0.55312341     0.36100
C2583       C  0.64920606  0.89501761  0.59489539     0.05600
F2584       F  0.65715650  0.87151055  0.55976357    -0.20200
H2585       H  0.68461707  0.88912504  0.52551521     0.15500
F2586       F  0.70160960  0.94995371  0.55112064    -0.23900
H2587       H  0.67436958  0.93223875  0.58517530     0.17300
C2588       C  0.64789253  0.88194690  0.61448173     0.25300
C2589       C  0.63392582  0.87592480  0.63444604    -0.12400
C2590       C  0.62079418  0.88260574  0.63519775    -0.26500
C2591       C  0.62183364  0.89533957  0.61507361     0.36200
C2592       C  0.63596750  0.90151808  0.59533873    -0.28100
F2593       F  0.66061211  0.87559229  0.61501338    -0.20200
H2594       H  0.63357521  0.86615557  0.64954977     0.15500
F2595       F  0.60959808  0.90230872  0.61474492    -0.23900
H2596       H  0.63668478  0.91156638  0.58040282     0.17300
C2597       C  0.57149583  0.11492447  0.86541988    -0.28000
C2598       C  0.57149242  0.09906589  0.85379537     0.05600
C2599       C  0.55382982  0.08210188  0.85044242     0.25200
C2600       C  0.53666711  0.08118772  0.85825663    -0.12500
C2601       C  0.53653593  0.09722369  0.86920273    -0.26400
C2602       C  0.55431058  0.11416589  0.87276190     0.36100
C2603       C  0.58976335  0.10087453  0.84353229     0.05600
F2604       F  0.55311499  0.06635668  0.83951929    -0.20200
H2605       H  0.52338159  0.06791610  0.85522731     0.15500
F2606       F  0.55519985  0.13015539  0.88306281    -0.23900
H2607       H  0.58485457  0.12820397  0.86800452     0.17300
C2608       C  0.59144754  0.09710945  0.81658575     0.25300
C2609       C  0.60904783  0.10067793  0.80621578    -0.12400
C2610       C  0.62553568  0.10796586  0.82238372    -0.26500
C2611       C  0.62361926  0.11075922  0.84973751     0.36200
C2612       C  0.60599594  0.10752926  0.86003140    -0.28100
F2613       F  0.57628642  0.09092618  0.79982027    -0.20200
H2614       H  0.60978907  0.09810842  0.78515805     0.15500
F2615       F  0.63882046  0.11701933  0.86644418    -0.23900
H2616       H  0.60504419  0.11037381  0.88092470     0.17300
C2617       C  0.58558700  0.98090620  0.74325691    -0.28000
C2618       C  0.60188836  0.99363334  0.75779268     0.05600
C2619       C  0.60954885  0.98644885  0.77665875     0.25200
C2620       C  0.60206446  0.96674803  0.77913051    -0.12500
C2621       C  0.58653040  0.95393883  0.76332399    -0.26400
C2622       C  0.57770562  0.96110438  0.74632050     0.36100
C2623       C  0.61230379  0.01422681  0.75149063     0.05600
F2624       F  0.62509529  0.99853449  0.79133369    -0.20200
H2625       H  0.60907588  0.96150006  0.79231535     0.15500
F2626       F  0.56266850  0.94905510  0.73082988    -0.23900
H2627       H  0.57952558  0.98631014  0.72871506     0.17300
C2628       C  0.62598715  0.02108208  0.73095462     0.25300
C2629       C  0.63863379  0.04071670  0.72830037    -0.12400
C2630       C  0.63769412  0.05375492  0.74591816    -0.26500
C2631       C  0.62347120  0.04691718  0.76576862     0.36200
C2632       C  0.61082219  0.02724954  0.76843219    -0.28100
F2633       F  0.62800032  0.00870495  0.71474155    -0.20200
H2634       H  0.64979735  0.04570601  0.71332800     0.15500
F2635       F  0.62313290  0.05901936  0.78430432    -0.23900
H2636       H  0.60063085  0.02209011  0.78471184     0.17300
C2637       C  0.76109309  0.99446990  0.21806358    -0.28000
C2638       C  0.76804105  0.00852292  0.23826671     0.05600
C2639       C  0.77769530  0.02784226  0.23098973     0.25200
C2640       C  0.77994530  0.03302284  0.20428164    -0.12500
C2641       C  0.77305682  0.01915903  0.18377321    -0.26400
C2642       C  0.76355972  0.99970263  0.19097337     0.36100
C2643       C  0.76630556  0.00324214  0.26686889     0.05600
F2644       F  0.78574658  0.04183685  0.24970423    -0.20200
H2645       H  0.78745206  0.04818510  0.19983998     0.15500
F2646       F  0.75690572  0.98581763  0.17205754    -0.23900
H2647       H  0.75378191  0.97943807  0.22330082     0.17300
C2648       C  0.75997625  0.01174531  0.28595979     0.25300
C2649       C  0.75945757  0.00733103  0.31305462    -0.12400
C2650       C  0.76467714  0.99398486  0.32135435    -0.26500
C2651       C  0.77108771  0.98560315  0.30233518     0.36200
C2652       C  0.77193935  0.99025403  0.27540892    -0.28100
F2653       F  0.75347740  0.02363770  0.27831552    -0.20200
H2654       H  0.75392598  0.01346433  0.32731046     0.15500
F2655       F  0.77621170  0.97259568  0.30982843    -0.23900
H2656       H  0.77706452  0.98372273  0.26118580     0.17300
C2657       C  0.77049548  0.12693395  0.88733382    -0.28000
C2658       C  0.75831024  0.11265379  0.90511065     0.05600
C2659       C  0.73862186  0.10620510  0.90462374     0.25200
C2660       C  0.73119323  0.11355543  0.88584624    -0.12500
C2661       C  0.74328125  0.12745158  0.86726398    -0.26400
C2662       C  0.76313909  0.13427998  0.86852389     0.36100
C2663       C  0.76639529  0.10507216  0.92470212     0.05600
F2664       F  0.72665069  0.09297751  0.92249358    -0.20200
H2665       H  0.71589010  0.10800352  0.88547848     0.15500
F2666       F  0.77553738  0.14794884  0.85154922    -0.23900
H2667       H  0.78575725  0.13220948  0.88779098     0.17300
C2668       C  0.75998819  0.08540787  0.92617760     0.25300
C2669       C  0.76708310  0.07842192  0.94592204    -0.12400
C2670       C  0.78046011  0.09090170  0.96470285    -0.26500
C2671       C  0.78752050  0.11075149  0.96222866     0.36200
C2672       C  0.78054742  0.11768441  0.94230905    -0.28100
F2673       F  0.74672722  0.07296619  0.90874561    -0.20200
H2674       H  0.76149583  0.06312901  0.94711614     0.15500
F2675       F  0.80084546  0.12351327  0.97928412    -0.23900
H2676       H  0.78577037  0.13292139  0.94113453     0.17300
C2677       C  0.63631346  0.12333052  0.56379218    -0.28000
C2678       C  0.65265393  0.12301728  0.57244967     0.05600
C2679       C  0.66491140  0.12194443  0.55334707     0.25200
C2680       C  0.66009222  0.11982398  0.52621518    -0.12500
C2681       C  0.64302535  0.11882122  0.51777370    -0.26400
C2682       C  0.63155042  0.12135478  0.53680355     0.36100
C2683       C  0.65630844  0.12285161  0.60139980     0.05600
F2684       F  0.68137626  0.12261840  0.56101078    -0.20200
H2685       H  0.66922031  0.11803946  0.51203777     0.15500
F2686       F  0.61524362  0.12117549  0.52951010    -0.23900
H2687       H  0.62673033  0.12426507  0.57807369     0.17300
C2688       C  0.65612789  0.13649859  0.61874680     0.25300
C2689       C  0.66083219  0.13682422  0.64564724    -0.12400
C2690       C  0.66531973  0.12334182  0.65571125    -0.26500
C2691       C  0.66445280  0.10904105  0.63885944     0.36200
C2692       C  0.65995134  0.10881125  0.61188924    -0.28100
F2693       F  0.65229326  0.15004863  0.60949736    -0.20200
H2694       H  0.66174170  0.14808823  0.65842916     0.15500
F2695       F  0.66855719  0.09571394  0.64829406    -0.23900
H2696       H  0.65957618  0.09781773  0.59905711     0.17300
C2697       C  0.52059723  0.11654561  0.35680321    -0.28000
C2698       C  0.50323357  0.09983147  0.35118647     0.05600
C2699       C  0.50239436  0.08205735  0.35348209     0.25200
C2700       C  0.51872694  0.08110257  0.36049431    -0.12500
C2701       C  0.53629318  0.09784005  0.36569179    -0.26400
C2702       C  0.53691027  0.11562737  0.36415729     0.36100
C2703       C  0.48642627  0.10111035  0.34151134     0.05600
F2704       F  0.48565917  0.06556908  0.34934542    -0.20200
H2705       H  0.51751460  0.06714486  0.36208586     0.15500
F2706       F  0.55325817  0.13220364  0.36962758    -0.23900
H2707       H  0.52160851  0.13041154  0.35507326     0.17300
C2708       C  0.47915500  0.11105949  0.35598056     0.25300
C2709       C  0.46440637  0.11351927  0.34535962    -0.12400
C2710       C  0.45699507  0.10658863  0.31978863    -0.26500
C2711       C  0.46380733  0.09597256  0.30582242     0.36200
C2712       C  0.47819810  0.09315155  0.31673320    -0.28100
F2713       F  0.48653908  0.11868216  0.38019583    -0.20200
H2714       H  0.45947889  0.12171228  0.35659235     0.15500
F2715       F  0.45693562  0.08870553  0.28125236    -0.23900
H2716       H  0.48352265  0.08540615  0.30523930     0.17300
C2717       C  0.49470476  0.01811989  0.46528193    -0.28000
C2718       C  0.49586080  0.01701658  0.49314529     0.05600
C2719       C  0.51354460  0.02777098  0.50586412     0.25200
C2720       C  0.52976873  0.03951452  0.49098336    -0.12500
C2721       C  0.52881828  0.04067439  0.46303245    -0.26400
C2722       C  0.51103243  0.02989706  0.45024862     0.36100
C2723       C  0.47902108  0.00333269  0.50858488     0.05600
F2724       F  0.51536249  0.02614161  0.53251842    -0.20200
H2725       H  0.54325144  0.04733753  0.50147980     0.15500
F2726       F  0.50934468  0.03074765  0.42341793    -0.23900
H2727       H  0.48113549  0.00971943  0.45517850     0.17300
C2728       C  0.47298146  0.00901105  0.53145184     0.25300
C2729       C  0.45761401  0.99542278  0.54649033    -0.12400
C2730       C  0.44802262  0.97614421  0.53871524    -0.26500
C2731       C  0.45402980  0.97056679  0.51577339     0.36200
C2732       C  0.46942934  0.98407214  0.50094387    -0.28100
F2733       F  0.48167453  0.02766646  0.53893713    -0.20200
H2734       H  0.45291193  0.00001373  0.56380793     0.15500
F2735       F  0.44521371  0.95198667  0.50790739    -0.23900
H2736       H  0.47408963  0.97943494  0.48363395     0.17300
C2737       C  0.70501931  0.03709357  0.40086500    -0.28000
C2738       C  0.71323727  0.05166252  0.42006042     0.05600
C2739       C  0.72916455  0.05398995  0.43460770     0.25200
C2740       C  0.73601668  0.04117577  0.43094921    -0.12500
C2741       C  0.72670328  0.02561464  0.41333759    -0.26400
C2742       C  0.71156271  0.02409584  0.39762592     0.36100
C2743       C  0.70385533  0.06308449  0.42582475     0.05600
F2744       F  0.73754597  0.06811197  0.45305611    -0.20200
H2745       H  0.74765705  0.04256091  0.44331257     0.15500
F2746       F  0.70255770  0.00951228  0.37995406    -0.23900
H2747       H  0.69282560  0.03518583  0.38933385     0.17300
C2748       C  0.70386637  0.07575383  0.40660756     0.25300
C2749       C  0.69133665  0.08299231  0.40901361    -0.12400
C2750       C  0.67847374  0.07751624  0.43047191    -0.26500
C2751       C  0.67940967  0.06592858  0.45070221     0.36200
C2752       C  0.69210231  0.05884640  0.44842759    -0.28100
F2753       F  0.71513362  0.08009817  0.38466028    -0.20200
H2754       H  0.69062782  0.09166396  0.39303309     0.15500
F2755       F  0.66732029  0.06065142  0.47187009    -0.23900
H2756       H  0.69182193  0.04900611  0.46337520     0.17300
C2757       C  0.54435450  0.88673722  0.94988781    -0.28000
C2758       C  0.53574879  0.89194177  0.92960768     0.05600
C2759       C  0.52479310  0.90034885  0.93672946     0.25200
C2760       C  0.52302877  0.90401437  0.96343909    -0.12500
C2761       C  0.53179583  0.89908470  0.98395087    -0.26400
C2762       C  0.54241499  0.89021463  0.97680077     0.36100
C2763       C  0.53809641  0.88835671  0.90120471     0.05600
F2764       F  0.51530255  0.90455204  0.91796145    -0.20200
H2765       H  0.51452355  0.91063668  0.96797175     0.15500
F2766       F  0.55113534  0.88510835  0.99558145    -0.23900
H2767       H  0.55284062  0.88017627  0.94483892     0.17300
C2768       C  0.54325351  0.90268638  0.88163820     0.25300
C2769       C  0.54601904  0.89917434  0.85514874    -0.12400
C2770       C  0.54407661  0.88151892  0.84785846    -0.26500
C2771       C  0.53879025  0.86715837  0.86738039     0.36200
C2772       C  0.53567735  0.87054065  0.89366557    -0.28100
F2773       F  0.54659600  0.92040339  0.88830583    -0.20200
H2774       H  0.55060317  0.91057638  0.84061542     0.15500
F2775       F  0.53697071  0.84992344  0.86119899    -0.23900
H2776       H  0.53159027  0.85926034  0.90827895     0.17300
C2777       C  0.38583446  0.91161485  0.18869542    -0.28000
C2778       C  0.38673352  0.90664774  0.16217347     0.05600
C2779       C  0.37046160  0.90008866  0.14587096     0.25200
C2780       C  0.35343196  0.89808247  0.15627419    -0.12500
C2781       C  0.35238248  0.90255471  0.18310832    -0.26400
C2782       C  0.36901110  0.90986088  0.19901644     0.36100
C2783       C  0.40466938  0.90814293  0.15203618     0.05600
F2784       F  0.37103947  0.89557352  0.11993994    -0.20200
H2785       H  0.34092848  0.89245814  0.14355919     0.15500
F2786       F  0.36907444  0.91516606  0.22474131    -0.23900
H2787       H  0.39815183  0.91658665  0.20167478     0.17300
C2788       C  0.42228090  0.92488689  0.15620625     0.25300
C2789       C  0.43928151  0.92578656  0.14826639    -0.12400
C2790       C  0.43920238  0.91000229  0.13609201    -0.26500
C2791       C  0.42142731  0.89340703  0.13116013     0.36200
C2792       C  0.40438689  0.89252643  0.13921618    -0.28100
F2793       F  0.42306485  0.94044588  0.16793326    -0.20200
H2794       H  0.45258193  0.93890270  0.15199488     0.15500
F2795       F  0.42038538  0.87800603  0.11860003    -0.23900
H2796       H  0.39095266  0.87944957  0.13592980     0.17300
C2797       C  0.56353289  0.98818512  0.23402454    -0.28000
C2798       C  0.55338222  0.99724395  0.24201697     0.05600
C2799       C  0.53574208  0.99212934  0.23013404     0.25200
C2800       C  0.52849655  0.97831087  0.21007634    -0.12500
C2801       C  0.53829824  0.96874101  0.20242308    -0.26400
C2802       C  0.55594212  0.97378417  0.21467663     0.36100
C2803       C  0.56085657  0.01155901  0.26344349     0.05600
F2804       F  0.52547095  0.00039955  0.23815337    -0.20200
H2805       H  0.51496268  0.97477919  0.20092060     0.15500
F2806       F  0.56602442  0.96509432  0.20771290    -0.23900
H2807       H  0.57713791  0.99200229  0.24321266     0.17300
C2808       C  0.55132866  0.00757949  0.28799789     0.25300
C2809       C  0.55810101  0.02133494  0.30811031    -0.12400
C2810       C  0.57440726  0.03936347  0.30395666    -0.26500
C2811       C  0.58399158  0.04325446  0.27923537     0.36200
C2812       C  0.57727005  0.02934984  0.25922576    -0.28100
F2813       F  0.53555849  0.99029867  0.29253070    -0.20200
H2814       H  0.55061973  0.01777327  0.32703121     0.15500
F2815       F  0.59961997  0.06053835  0.27416414    -0.23900
H2816       H  0.58466603  0.03255626  0.24024696     0.17300
C2817       C  0.63445492  0.94676228  0.10437764    -0.28000
C2818       C  0.64296212  0.94547883  0.08060121     0.05600
C2819       C  0.63102797  0.93590018  0.05860447     0.25200
C2820       C  0.61128988  0.92931597  0.05984413    -0.12500
C2821       C  0.60329781  0.93234036  0.08288694    -0.26400
C2822       C  0.61486476  0.94025741  0.10555974     0.36100
C2823       C  0.66425036  0.95650694  0.07838314     0.05600
F2824       F  0.63853652  0.93363282  0.03558989    -0.20200
H2825       H  0.60252350  0.92301704  0.04230042     0.15500
F2826       F  0.60730034  0.94248581  0.12858263    -0.23900
H2827       H  0.64317991  0.95395633  0.12163931     0.17300
C2828       C  0.67299837  0.97004277  0.05785356     0.25300
C2829       C  0.69242513  0.98359580  0.05920566    -0.12400
C2830       C  0.70367503  0.98414979  0.08094931    -0.26500
C2831       C  0.69541855  0.96981556  0.10053455     0.36200
C2832       C  0.67582921  0.95613800  0.09922542    -0.28100
F2833       F  0.66252910  0.97141385  0.03767308    -0.20200
H2834       H  0.69856215  0.99434262  0.04366636     0.15500
F2835       F  0.70580013  0.96989327  0.12188405    -0.23900
H2836       H  0.66945238  0.94585915  0.11526895     0.17300
C2837       C  0.46968483  0.01827745  0.01010697    -0.28000
C2838       C  0.47725401  0.00741670  0.99944649     0.05600
C2839       C  0.48162847  0.00902832  0.97194541     0.25200
C2840       C  0.47925237  0.02191477  0.95589382    -0.12500
C2841       C  0.47236666  0.03333135  0.96687151    -0.26400
C2842       C  0.46706461  0.03091372  0.99408064     0.36100
C2843       C  0.48013914  0.99416517  0.01690247     0.05600
F2844       F  0.48870350  0.99853944  0.96066382    -0.20200
H2845       H  0.48319673  0.02324362  0.93502179     0.15500
F2846       F  0.45893461  0.04046045  0.00527511    -0.23900
H2847       H  0.46546292  0.01675261  0.03087700     0.17300
C2848       C  0.48906869  0.99992539  0.04209266     0.25300
C2849       C  0.49288252  0.98757450  0.05716871    -0.12400
C2850       C  0.48822994  0.96949811  0.04719701    -0.26500
C2851       C  0.47833951  0.96341703  0.02272250     0.36200
C2852       C  0.47420977  0.97556149  0.00802516    -0.28100
F2853       F  0.49513190  0.01783269  0.05149791    -0.20200
H2854       H  0.50041914  0.99257115  0.07594458     0.15500
F2855       F  0.47291566  0.94581863  0.01258613    -0.23900
H2856       H  0.46661822  0.97047845  0.98930944     0.17300
C2857       C  0.41335582  0.16037494  0.84498156    -0.28000
C2858       C  0.42354545  0.17034833  0.82215026     0.05600
C2859       C  0.43576413  0.16491046  0.80975389     0.25200
C2860       C  0.43806241  0.15009050  0.82043924    -0.12500
C2861       C  0.42838509  0.14055042  0.84383467    -0.26400
C2862       C  0.41575192  0.14568426  0.85579315     0.36100
C2863       C  0.42198381  0.18690420  0.81219407     0.05600
F2864       F  0.44551712  0.17398742  0.78734015    -0.20200
H2865       H  0.44798150  0.14655985  0.81097353     0.15500
F2866       F  0.40579712  0.13658307  0.87808353    -0.23900
H2867       H  0.40390839  0.16434319  0.85491454     0.17300
C2868       C  0.40407087  0.18507351  0.80660653     0.25300
C2869       C  0.40272981  0.20104409  0.79893042    -0.12400
C2870       C  0.41919249  0.21924680  0.79660191    -0.26500
C2871       C  0.43718616  0.22096014  0.80166969     0.36200
C2872       C  0.43848441  0.20493098  0.80935177    -0.28100
F2873       F  0.38785429  0.16778280  0.80827721    -0.20200
H2874       H  0.38868189  0.19909001  0.79480130     0.15500
F2875       F  0.45352299  0.23814196  0.79991039    -0.23900
H2876       H  0.45242249  0.20669542  0.81375221     0.17300
C2877       C  0.30684924  0.14555115  0.66790342    -0.28000
C2878       C  0.32094898  0.16184510  0.65485645     0.05600
C2879       C  0.32247894  0.16143857  0.62685926     0.25200
C2880       C  0.30946543  0.14523655  0.61234114    -0.12500
C2881       C  0.29496917  0.12907378  0.62547785    -0.26400
C2882       C  0.29402529  0.12942144  0.65363706     0.36100
C2883       C  0.33369672  0.17894830  0.67108344     0.05600
F2884       F  0.33628819  0.17672448  0.61346380    -0.20200
H2885       H  0.31078765  0.14534666  0.59083313     0.15500
F2886       F  0.28077226  0.11419318  0.66777758    -0.23900
H2887       H  0.30579063  0.14524281  0.68946426     0.17300
C2888       C  0.32597695  0.18548087  0.69102224     0.25300
C2889       C  0.33798735  0.20078940  0.70752978    -0.12400
C2890       C  0.35786731  0.21015521  0.70414571    -0.26500
C2891       C  0.36562264  0.20374976  0.68412686     0.36200
C2892       C  0.35362763  0.18817416  0.66794070    -0.28100
F2893       F  0.30675158  0.17733019  0.69415071    -0.20200
H2894       H  0.33170663  0.20582639  0.72228725     0.15500
F2895       F  0.38482329  0.21255869  0.68024703    -0.23900
H2896       H  0.35993220  0.18320831  0.65312740     0.17300
C2897       C  0.23974255  0.10719854  0.00918031    -0.28000
C2898       C  0.22196894  0.09055813  0.01304427     0.05600
C2899       C  0.20742400  0.09209756  0.02629280     0.25200
C2900       C  0.21061961  0.10993242  0.03524764    -0.12500
C2901       C  0.22841609  0.12667334  0.03139260    -0.26400
C2902       C  0.24298427  0.12504412  0.01808753     0.36100
C2903       C  0.21859409  0.07187953  0.00228466     0.05600
F2904       F  0.18991718  0.07644706  0.02991152    -0.20200
H2905       H  0.19904504  0.11059305  0.04520372     0.15500
F2906       F  0.26028892  0.14066854  0.01312214    -0.23900
H2907       H  0.25118784  0.10637476  0.99908401     0.17300
C2908       C  0.22254519  0.07026933  0.97541101     0.25300
C2909       C  0.21971606  0.05285431  0.96530025    -0.12400
C2910       C  0.21281958  0.03650107  0.98167051    -0.26500
C2911       C  0.20864758  0.03810094  0.00857971     0.36200
C2912       C  0.21151716  0.05560090  0.01868503    -0.28100
F2913       F  0.22873090  0.08548768  0.95872086    -0.20200
H2914       H  0.22291158  0.05221374  0.94446662     0.15500
F2915       F  0.20144579  0.02271520  0.02507000    -0.23900
H2916       H  0.20833165  0.05647823  0.03945564     0.17300
C2917       C  0.33307022  0.22600980  0.88949868    -0.28000
C2918       C  0.32984625  0.23866278  0.90495875     0.05600
C2919       C  0.34185648  0.25846469  0.90143433     0.25200
C2920       C  0.35655506  0.26539361  0.88251950    -0.12500
C2921       C  0.35935680  0.25276814  0.86627803    -0.26400
C2922       C  0.34750806  0.23290829  0.87016430     0.36100
C2923       C  0.31438146  0.23107701  0.92528405     0.05600
F2924       F  0.33945878  0.27115417  0.91636514    -0.20200
H2925       H  0.36533864  0.28072694  0.87997960     0.15500
F2926       F  0.34966560  0.22009961  0.85514679    -0.23900
H2927       H  0.32407680  0.21069496  0.89200832     0.17300
C2928       C  0.30083756  0.23722237  0.92651434     0.25300
C2929       C  0.28695606  0.23048345  0.94664312    -0.12400
C2930       C  0.28619783  0.21741119  0.96588010    -0.26500
C2931       C  0.29930849  0.21067425  0.96382035     0.36200
C2932       C  0.31322837  0.21754155  0.94384357    -0.28100
F2933       F  0.30092666  0.24965977  0.90819833    -0.20200
H2934       H  0.27703690  0.23584265  0.94742740     0.15500
F2935       F  0.29899339  0.19764181  0.98124873    -0.23900
H2936       H  0.32343269  0.21252786  0.94319629     0.17300
C2937       C  0.31668264  0.17032598  0.13043676    -0.28000
C2938       C  0.31275706  0.16564284  0.15757261     0.05600
C2939       C  0.29646627  0.16471511  0.16904012     0.25200
C2940       C  0.28474909  0.16910541  0.15376595    -0.12500
C2941       C  0.28906951  0.17465144  0.12681090    -0.26400
C2942       C  0.30495624  0.17474659  0.11507576     0.36100
C2943       C  0.32601742  0.16214889  0.17368668     0.05600
F2944       F  0.29183902  0.15954461  0.19494763    -0.20200
H2945       H  0.27242725  0.16851428  0.16335845     0.15500
F2946       F  0.30967328  0.17981516  0.08919020    -0.23900
H2947       H  0.32922530  0.17110439  0.12130344     0.17300
C2948       C  0.33136500  0.14895514  0.16493604     0.25300
C2949       C  0.34508342  0.14675526  0.17891756    -0.12400
C2950       C  0.35361082  0.15758165  0.20196170    -0.26500
C2951       C  0.34809492  0.17063828  0.21098807     0.36200
C2952       C  0.33433845  0.17285386  0.19692844    -0.28100
F2953       F  0.32326963  0.13818733  0.14282854    -0.20200
H2954       H  0.34900855  0.13649792  0.17177026     0.15500
F2955       F  0.35667275  0.18188236  0.23255776    -0.23900
H2956       H  0.33062863  0.18335935  0.20366699     0.17300
C2957       C  0.34557538  0.37934815  0.76628083    -0.28000
C2958       C  0.36347663  0.39111214  0.75459323     0.05600
C2959       C  0.36857289  0.40992389  0.74743005     0.25200
C2960       C  0.35527460  0.41630452  0.75026943    -0.12500
C2961       C  0.33677175  0.40395650  0.76024911    -0.26400
C2962       C  0.33243524  0.38567091  0.76935073     0.36100
C2963       C  0.37535844  0.38243027  0.74760988     0.05600
F2964       F  0.38585932  0.42163139  0.73617669    -0.20200
H2965       H  0.35901953  0.43042111  0.74310834     0.15500
F2966       F  0.31516508  0.37355130  0.78040450    -0.23900
H2967       H  0.34148944  0.36487213  0.77217235     0.17300
C2968       C  0.39099433  0.38532029  0.76340267     0.25300
C2969       C  0.39866424  0.37309273  0.76072773    -0.12400
C2970       C  0.39078580  0.35790898  0.74230649    -0.26500
C2971       C  0.37619855  0.35610850  0.72514015     0.36200
C2972       C  0.36865252  0.36830557  0.72774079    -0.28100
F2973       F  0.39782043  0.39893488  0.78270109    -0.20200
H2974       H  0.40970549  0.37454609  0.77441867     0.15500
F2975       F  0.36835615  0.34170036  0.70701390    -0.23900
H2976       H  0.35661578  0.36588185  0.71540014     0.17300
C2977       C  0.21956431  0.22543855  0.28774429    -0.28000
C2978       C  0.21961546  0.23782687  0.26795232     0.05600
C2979       C  0.21750931  0.25341126  0.27540106     0.25200
C2980       C  0.21509541  0.25636380  0.30215960    -0.12500
C2981       C  0.21449368  0.24371201  0.32206662    -0.26400
C2982       C  0.21702035  0.22830916  0.31462451     0.36100
C2983       C  0.22206911  0.23454973  0.23961255     0.05600
F2984       F  0.21793393  0.26586298  0.25680247    -0.20200
H2985       H  0.21341966  0.26850655  0.30723371     0.15500
F2986       F  0.21624339  0.21560097  0.33303294    -0.23900
H2987       H  0.22108363  0.21326839  0.28226606     0.17300
C2988       C  0.23770268  0.23264289  0.23174682     0.25300
C2989       C  0.23968020  0.22887942  0.20522167    -0.12400
C2990       C  0.22623148  0.22712090  0.18590224    -0.26500
C2991       C  0.21091785  0.22970300  0.19353020     0.36200
C2992       C  0.20882818  0.23330421  0.22029519    -0.28100
F2993       F  0.25123217  0.23471397  0.24966611    -0.20200
H2994       H  0.25185344  0.22735126  0.19977420     0.15500
F2995       F  0.19765387  0.22803472  0.17543161    -0.23900
H2996       H  0.19667178  0.23475721  0.22606633     0.17300
C2997       C  0.23014092  0.17807099  0.47600008    -0.28000
C2998       C  0.22344330  0.16968878  0.50105939     0.05600
C2999       C  0.21438789  0.17684661  0.51764523     0.25200
C3000       C  0.21157413  0.19175011  0.50888730    -0.12500
C3001       C  0.21764228  0.19976230  0.48337161    -0.26400
C3002       C  0.22726232  0.19286694  0.46711113     0.36100
C3003       C  0.22581453  0.15339271  0.50957681     0.05600
F3004       F  0.20836411  0.16949355  0.54241813    -0.20200
H3005       H  0.20424368  0.19672055  0.52191129     0.15500
F3006       F  0.23379010  0.20020983  0.44245745    -0.23900
H3007       H  0.23724548  0.17282540  0.46298317     0.17300
C3008       C  0.21006617  0.13623222  0.51844478     0.25300
C3009       C  0.21246966  0.12097490  0.52645828    -0.12400
C3010       C  0.23064056  0.12246974  0.52604183    -0.26500
C3011       C  0.24637649  0.13965919  0.51675776     0.36200
C3012       C  0.24388579  0.15485479  0.50848776    -0.28100
F3013       F  0.19226969  0.13409501  0.51903001    -0.20200
H3014       H  0.19999375  0.10797443  0.53317541     0.15500
F3015       F  0.26421282  0.14194596  0.51573526    -0.23900
H3016       H  0.25618609  0.16795257  0.50159830     0.17300
C3017       C  0.22060650  0.31242487  0.58081390    -0.28000
C3018       C  0.21142401  0.32304692  0.58523351     0.05600
C3019       C  0.19501453  0.31887814  0.57050563     0.25200
C3020       C  0.18850554  0.30497020  0.55056072    -0.12500
C3021       C  0.19809291  0.29477361  0.54526380    -0.26400
C3022       C  0.21394598  0.29826778  0.56113020     0.36100
C3023       C  0.21953521  0.33919741  0.60412190     0.05600
F3024       F  0.18585404  0.32893373  0.57456797    -0.20200
H3025       H  0.17628267  0.30259816  0.53870450     0.15500
F3026       F  0.22378879  0.28894714  0.55653672    -0.23900
H3027       H  0.23322391  0.31544412  0.59219840     0.17300
C3028       C  0.20911639  0.33897383  0.62658293     0.25300
C3029       C  0.21658777  0.35466369  0.64379707    -0.12400
C3030       C  0.23451236  0.37105637  0.63876588    -0.26500
C3031       C  0.24479142  0.37125529  0.61591628     0.36200
C3032       C  0.23737280  0.35537470  0.59890419    -0.28100
F3033       F  0.19175630  0.32350947  0.63190264    -0.20200
H3034       H  0.20830956  0.35381934  0.66126931     0.15500
F3035       F  0.26190036  0.38676929  0.60983044    -0.23900
H3036       H  0.24539892  0.35581423  0.58132360     0.17300
C3037       C  0.30124774  0.45125346  0.89663381    -0.28000
C3038       C  0.31841649  0.45214780  0.90392632     0.05600
C3039       C  0.32964565  0.45013426  0.88397098     0.25200
C3040       C  0.32361674  0.44720484  0.85727134    -0.12500
C3041       C  0.30616412  0.44587411  0.85013594    -0.26400
C3042       C  0.29513253  0.44815475  0.87017477     0.36100
C3043       C  0.32441203  0.45543179  0.93235367     0.05600
F3044       F  0.34601524  0.45018838  0.89039993    -0.20200
H3045       H  0.33222709  0.44524452  0.84238317     0.15500
F3046       F  0.27830919  0.44735572  0.86431580    -0.23900
H3047       H  0.29251692  0.45300581  0.91155065     0.17300
C3048       C  0.34243320  0.47057915  0.93952879     0.25300
C3049       C  0.34788842  0.47380435  0.96626620    -0.12400
C3050       C  0.33565688  0.46191863  0.98664660    -0.26500
C3051       C  0.31733841  0.44706807  0.97957107     0.36200
C3052       C  0.31178081  0.44394987  0.95263401    -0.28100
F3053       F  0.35471069  0.48248797  0.92071629    -0.20200
H3054       H  0.36198957  0.48558527  0.97096055     0.15500
F3055       F  0.30515726  0.43509620  0.99839379    -0.23900
H3056       H  0.29772573  0.43227133  0.94750729     0.17300
C3057       C  0.29130012  0.35823376  0.05977296    -0.28000
C3058       C  0.27726327  0.35159744  0.07975584     0.05600
C3059       C  0.27449325  0.36481199  0.09453833     0.25200
C3060       C  0.28689912  0.38449993  0.09097223    -0.12500
C3061       C  0.30226796  0.39103591  0.07295613    -0.26400
C3062       C  0.30368276  0.37780198  0.05628036     0.36100
C3063       C  0.26874595  0.33146005  0.08820813     0.05600
F3064       F  0.26104939  0.35870266  0.11404616    -0.20200
H3065       H  0.28563740  0.39450442  0.10407300     0.15500
F3066       F  0.31793654  0.38376803  0.03797137    -0.23900
H3067       H  0.29357519  0.34818131  0.04821684     0.17300
C3068       C  0.25076530  0.31720669  0.07907775     0.25300
C3069       C  0.24514683  0.29781682  0.08259157    -0.12400
C3070       C  0.25754962  0.29257302  0.09492451    -0.26500
C3071       C  0.27481867  0.30697928  0.10593488     0.36200
C3072       C  0.28030005  0.32619565  0.10256486    -0.28100
F3073       F  0.23931675  0.32201089  0.06523285    -0.20200
H3074       H  0.23179379  0.28698682  0.07392345     0.15500
F3075       F  0.28688105  0.30251847  0.11882578    -0.23900
H3076       H  0.29416145  0.33707334  0.10985641     0.17300
C3077       C  0.44324675  0.33193515  0.54972680    -0.28000
C3078       C  0.43941618  0.34238559  0.56882226     0.05600
C3079       C  0.43716120  0.35773018  0.56057635     0.25200
C3080       C  0.43948844  0.36304148  0.53382848    -0.12500
C3081       C  0.44380050  0.35297082  0.51472115    -0.26400
C3082       C  0.44530475  0.33709119  0.52276427     0.36100
C3083       C  0.43650277  0.33656936  0.59706437     0.05600
F3084       F  0.43225661  0.36727941  0.57833093    -0.20200
H3085       H  0.43796536  0.37515177  0.52798979     0.15500
F3086       F  0.44961956  0.32716332  0.50490038    -0.23900
H3087       H  0.44486045  0.31991975  0.55578301     0.17300
C3088       C  0.42308825  0.31771967  0.60368156     0.25300
C3089       C  0.41923074  0.31235329  0.63019018    -0.12400
C3090       C  0.42871490  0.32556548  0.65096133    -0.26500
C3091       C  0.44208140  0.34460626  0.64439843     0.36200
C3092       C  0.44600099  0.35000147  0.61753748    -0.28100
F3093       F  0.41313341  0.30458181  0.58449133    -0.20200
H3094       H  0.40855803  0.29763391  0.63430656     0.15500
F3095       F  0.45135186  0.35790006  0.66367539    -0.23900
H3096       H  0.45637384  0.36468293  0.61266213     0.17300
C3097       C  0.40912245  0.23932914  0.31547583    -0.28000
C3098       C  0.42782352  0.25487376  0.31770734     0.05600
C3099       C  0.44325815  0.25218913  0.31114029     0.25200
C3100       C  0.43998413  0.23422413  0.30296015    -0.12500
C3101       C  0.42126406  0.21848088  0.30100183    -0.26400
C3102       C  0.40579067  0.22132056  0.30718542     0.36100
C3103       C  0.43107441  0.27345799  0.32837118     0.05600
F3104       F  0.46155996  0.26675070  0.31346789    -0.20200
H3105       H  0.45226403  0.23266648  0.29839271     0.15500
F3106       F  0.38744539  0.20674761  0.30558872    -0.23900
H3107       H  0.39704052  0.24114399  0.32037752     0.17300
C3108       C  0.44105519  0.29048377  0.31362274     0.25300
C3109       C  0.44413298  0.30789033  0.32430031    -0.12400
C3110       C  0.43712170  0.30863982  0.34974701    -0.26500
C3111       C  0.42670047  0.29138976  0.36415573     0.36200
C3112       C  0.42384919  0.27409759  0.35356750    -0.28100
F3113       F  0.44727095  0.29016830  0.28856104    -0.20200
H3114       H  0.45205877  0.32081500  0.31262543     0.15500
F3115       F  0.41883006  0.29105584  0.38824166    -0.23900
H3116       H  0.41594210  0.26109736  0.36511735     0.17300
C3117       C  0.42461834  0.41721796  0.26109501    -0.28000
C3118       C  0.43368331  0.43711705  0.25743593     0.05600
C3119       C  0.44955523  0.44908919  0.27329659     0.25200
C3120       C  0.45613743  0.44125886  0.29255659    -0.12500
C3121       C  0.44691033  0.42136694  0.29666493    -0.26400
C3122       C  0.43105491  0.40935324  0.28061728     0.36100
C3123       C  0.42589493  0.44531299  0.23806056     0.05600
F3124       F  0.45810116  0.46840686  0.27111858    -0.20200
H3125       H  0.46825242  0.45086355  0.30474668     0.15500
F3126       F  0.42109518  0.39016372  0.28474086    -0.23900
H3127       H  0.41226282  0.40778443  0.24915614     0.17300
C3128       C  0.43755077  0.45810770  0.21821192     0.25300
C3129       C  0.42982764  0.46539881  0.19977029    -0.12400
C3130       C  0.41032174  0.46010264  0.20069118    -0.26500
C3131       C  0.39879965  0.44755180  0.22106071     0.36200
C3132       C  0.40656495  0.44024875  0.23942225    -0.28100
F3133       F  0.45624344  0.46303487  0.21607972    -0.20200
H3134       H  0.43912318  0.47492424  0.18438275     0.15500
F3135       F  0.37989090  0.44175767  0.22286104    -0.23900
H3136       H  0.39741561  0.43050883  0.25475362     0.17300
C3137       C  0.34596720  0.30088956  0.39556012    -0.28000
C3138       C  0.33780645  0.29135990  0.41959373     0.05600
C3139       C  0.34990960  0.29363352  0.44124927     0.25200
C3140       C  0.36956850  0.30667979  0.43966176    -0.12500
C3141       C  0.37733755  0.31743349  0.41641312    -0.26400
C3142       C  0.36557561  0.31383849  0.39394928     0.36100
C3143       C  0.31675927  0.28190981  0.42307018     0.05600
F3144       F  0.34253697  0.28396896  0.46436765    -0.20200
H3145       H  0.37847975  0.30923705  0.45707337     0.15500
F3146       F  0.37295748  0.32357163  0.37083991    -0.23900
H3147       H  0.33697815  0.29932380  0.37859284     0.17300
C3148       C  0.30924452  0.28816704  0.44349457     0.25300
C3149       C  0.28984482  0.28232836  0.44394853    -0.12400
C3150       C  0.27743475  0.27031121  0.42399326    -0.26500
C3151       C  0.28458862  0.26296304  0.40450940     0.36200
C3152       C  0.30418884  0.26885863  0.40400621    -0.28100
F3153       F  0.32087292  0.30126180  0.46175165    -0.20200
H3154       H  0.28463757  0.28796593  0.45941833     0.15500
F3155       F  0.27303941  0.25132284  0.38491880    -0.23900
H3156       H  0.30971956  0.26391803  0.38806580     0.17300
C3157       C  0.49803499  0.44083068  0.84833171    -0.28000
C3158       C  0.49862905  0.42374668  0.85095270     0.05600
C3159       C  0.51543299  0.42482928  0.86099852     0.25200
C3160       C  0.53104423  0.44242308  0.86849425    -0.12500
C3161       C  0.53055717  0.45956749  0.86596733    -0.26400
C3162       C  0.51374862  0.45853940  0.85571700     0.36100
C3163       C  0.48248602  0.40512199  0.84117231     0.05600
F3164       F  0.51719506  0.40897454  0.86240768    -0.20200
H3165       H  0.54370625  0.44256912  0.87599795     0.15500
F3166       F  0.51252531  0.47459951  0.85231517    -0.23900
H3167       H  0.48538227  0.44047610  0.84035240     0.17300
C3168       C  0.47527943  0.38817589  0.85633992     0.25300
C3169       C  0.46195926  0.37043670  0.84526128    -0.12400
C3170       C  0.45541850  0.36916141  0.81889359    -0.26500
C3171       C  0.46171968  0.38632023  0.80444082     0.36200
C3172       C  0.47501615  0.40398839  0.81551366    -0.28100
F3173       F  0.48116361  0.38873278  0.88186058    -0.20200
H3174       H  0.45720182  0.35761513  0.85710532     0.15500
F3175       F  0.45529442  0.38609901  0.77934813    -0.23900
H3176       H  0.48008647  0.41677644  0.80349201     0.17300
C3177       C  0.46877073  0.52042354  0.99766826    -0.28000
C3178       C  0.48312592  0.51689145  0.00660624     0.05600
C3179       C  0.48234018  0.51017259  0.03274215     0.25200
C3180       C  0.46656358  0.50567887  0.04895800    -0.12500
C3181       C  0.45156745  0.50812618  0.03942627    -0.26400
C3182       C  0.45324299  0.51636237  0.01399385     0.36100
C3183       C  0.49905283  0.52055733  0.98872646     0.05600
F3184       F  0.49644216  0.50722416  0.04215576    -0.20200
H3185       H  0.46574068  0.49958701  0.06850384     0.15500
F3186       F  0.43979070  0.52034147  0.00471138    -0.23900
H3187       H  0.46959294  0.52630955  0.97796106     0.17300
C3188       C  0.49577746  0.51168817  0.96356182     0.25300
C3189       C  0.51124215  0.51480026  0.94743505    -0.12400
C3190       C  0.53004270  0.52671018  0.95634702    -0.26500
C3191       C  0.53312157  0.53612667  0.98111579     0.36200
C3192       C  0.51775732  0.53298591  0.99707914    -0.28100
F3193       F  0.47770599  0.49938613  0.95517526    -0.20200
H3194       H  0.50854319  0.50729640  0.92859952     0.15500
F3195       F  0.55104582  0.54829337  0.99014340    -0.23900
H3196       H  0.52046845  0.54020961  0.01615463     0.17300
C3197       C  0.36983077  0.49356748  0.64708855    -0.28000
C3198       C  0.38609535  0.50195127  0.66360750     0.05600
C3199       C  0.38437544  0.49531544  0.68994580     0.25200
C3200       C  0.36656074  0.48154442  0.69997694    -0.12500
C3201       C  0.35006023  0.47355326  0.68381468    -0.26400
C3202       C  0.35205286  0.47932093  0.65688724     0.36100
C3203       C  0.40442450  0.51842384  0.65395015     0.05600
F3204       F  0.39979045  0.50268315  0.70638906    -0.20200
H3205       H  0.36570395  0.47730058  0.72065802     0.15500
F3206       F  0.33676599  0.47169886  0.64019813    -0.23900
H3207       H  0.37087714  0.49823542  0.62658833     0.17300
C3208       C  0.42178385  0.51830620  0.65553342     0.25300
C3209       C  0.43893859  0.53421321  0.64715082    -0.12400
C3210       C  0.43931817  0.55077648  0.63736723    -0.26500
C3211       C  0.42188390  0.55093247  0.63615768     0.36200
C3212       C  0.40470011  0.53486590  0.64410469    -0.28100
F3213       F  0.42216612  0.50271924  0.66492478    -0.20200
H3214       H  0.45200240  0.53356167  0.64852914     0.15500
F3215       F  0.42129263  0.56653704  0.62729224    -0.23900
H3216       H  0.39156028  0.53540753  0.64307935     0.17300
C3217       C  0.54415205  0.71839498  0.68888457    -0.28000
C3218       C  0.55575755  0.73561765  0.67516464     0.05600
C3219       C  0.56471641  0.73495365  0.65141859     0.25200
C3220       C  0.56143071  0.71739702  0.64111284    -0.12500
C3221       C  0.54922362  0.70007155  0.65424164    -0.26400
C3222       C  0.54089258  0.70080172  0.67859840     0.36100
C3223       C  0.55753235  0.75400705  0.68466019     0.05600
F3224       F  0.57569242  0.75116501  0.63725274    -0.20200
H3225       H  0.56802250  0.71729790  0.62232431     0.15500
F3226       F  0.52854454  0.68444348  0.69152623    -0.23900
H3227       H  0.53716475  0.71852336  0.70727649     0.17300
C3228       C  0.54114762  0.75546737  0.68982117     0.25300
C3229       C  0.54282110  0.77291499  0.69775967    -0.12400
C3230       C  0.56086044  0.78942443  0.70067278    -0.26500
C3231       C  0.57732321  0.78790760  0.69554516     0.36200
C3232       C  0.57558907  0.77043009  0.68759804    -0.28100
F3233       F  0.52342529  0.74016224  0.68617594    -0.20200
H3234       H  0.52988172  0.77351148  0.70127912     0.15500
F3235       F  0.59518364  0.80322335  0.69824978    -0.23900
H3236       H  0.58843627  0.76970441  0.68380664     0.17300
C3237       C  0.48341156  0.49443548  0.46251936    -0.28000
C3238       C  0.49412968  0.49929697  0.48621259     0.05600
C3239       C  0.50289945  0.48874907  0.49384842     0.25200
C3240       C  0.49996102  0.47287924  0.47891467    -0.12500
C3241       C  0.48874461  0.46762028  0.45561753    -0.26400
C3242       C  0.48090834  0.47888634  0.44713116     0.36100
C3243       C  0.49615803  0.51542031  0.50275518     0.05600
F3244       F  0.51457894  0.49401736  0.51545836    -0.20200
H3245       H  0.50644483  0.46464415  0.48562100     0.15500
F3246       F  0.47012993  0.47441137  0.42465855    -0.23900
H3247       H  0.47666433  0.50250349  0.45618842     0.17300
C3248       C  0.50291161  0.53354243  0.49138571     0.25300
C3249       C  0.50468200  0.54870303  0.50690374    -0.12400
C3250       C  0.49972863  0.54619493  0.53417351    -0.26500
C3251       C  0.49276808  0.52790844  0.54551851     0.36200
C3252       C  0.49110675  0.51271800  0.52990471    -0.28100
F3253       F  0.50823971  0.53669809  0.46535035    -0.20200
H3254       H  0.51015722  0.56253901  0.49745829     0.15500
F3255       F  0.48719662  0.52455107  0.57143794    -0.23900
H3256       H  0.48560398  0.49873184  0.53891348     0.17300
C3257       C  0.52778425  0.55380892  0.71816969    -0.28000
C3258       C  0.54468852  0.56521115  0.73242445     0.05600
C3259       C  0.55365469  0.58521294  0.73032147     0.25200
C3260       C  0.54615913  0.59362584  0.71340655    -0.12500
C3261       C  0.52968778  0.58222475  0.69815275    -0.26400
C3262       C  0.52027040  0.56217368  0.70123985     0.36100
C3263       C  0.55207339  0.55626727  0.75108975     0.05600
F3264       F  0.56957416  0.59659844  0.74480298    -0.20200
H3265       H  0.55370939  0.60905925  0.71146036     0.15500
F3266       F  0.50387358  0.55061546  0.68779259    -0.23900
H3267       H  0.52046774  0.53837208  0.72005850     0.17300
C3268       C  0.54068257  0.54540558  0.77248183     0.25300
C3269       C  0.54821677  0.53869574  0.79194694    -0.12400
C3270       C  0.56741378  0.54288950  0.79076235    -0.26500
C3271       C  0.57847897  0.55288577  0.76836119     0.36200
C3272       C  0.57081839  0.55952295  0.74873588    -0.28100
F3273       F  0.52266887  0.54244614  0.77553444    -0.20200
H3274       H  0.53917919  0.53103255  0.80872990     0.15500
F3275       F  0.59694550  0.55712256  0.76601995    -0.23900
H3276       H  0.57970899  0.56774189  0.73211307     0.17300
C3277       C  0.54383182  0.68122317  0.45031524    -0.28000
C3278       C  0.53113504  0.66886996  0.43076799     0.05600
C3279       C  0.51537975  0.65147686  0.43867537     0.25200
C3280       C  0.51263178  0.64637446  0.46554561    -0.12500
C3281       C  0.52566374  0.65837021  0.48514538    -0.26400
C3282       C  0.54112146  0.67606753  0.47733088     0.36100
C3283       C  0.53409169  0.67439293  0.40226809     0.05600
F3284       F  0.50259196  0.63944880  0.42041908    -0.20200
H3285       H  0.50045372  0.63269244  0.47094105     0.15500
F3286       F  0.55411274  0.68788870  0.49551340    -0.23900
H3287       H  0.55611286  0.69470855  0.44454003     0.17300
C3288       C  0.53615632  0.69198648  0.39435895     0.25300
C3289       C  0.53962499  0.69758730  0.36771195    -0.12400
C3290       C  0.54122346  0.68581760  0.34831051    -0.26500
C3291       C  0.53832802  0.66778745  0.35601922     0.36200
C3292       C  0.53480190  0.66215893  0.38283558    -0.28100
F3293       F  0.53479050  0.70377090  0.41246787    -0.20200
H3294       H  0.54149912  0.71143945  0.36237688     0.15500
F3295       F  0.53986765  0.65605298  0.33800474    -0.23900
H3296       H  0.53317643  0.64847549  0.38857694     0.17300
C3297       C  0.49998814  0.62400149  0.14537556    -0.28000
C3298       C  0.49184484  0.60741657  0.16123130     0.05600
C3299       C  0.49903266  0.60841980  0.18704864     0.25200
C3300       C  0.51374430  0.62574752  0.19700371    -0.12500
C3301       C  0.52185143  0.64252510  0.18142591    -0.26400
C3302       C  0.51495787  0.64137446  0.15520313     0.36100
C3303       C  0.47556254  0.58916629  0.15130299     0.05600
F3304       F  0.49128189  0.59276162  0.20308186    -0.20200
H3305       H  0.51863411  0.62605573  0.21721596     0.15500
F3306       F  0.52213961  0.65709887  0.13935712    -0.23900
H3307       H  0.49467084  0.62349532  0.12537465     0.17300
C3308       C  0.45829168  0.58805212  0.14354769     0.25300
C3309       C  0.44258175  0.57048173  0.13606160    -0.12400
C3310       C  0.44371048  0.55359987  0.13617770    -0.26500
C3311       C  0.46118321  0.55485548  0.14373799     0.36200
C3312       C  0.47685842  0.57244880  0.15112220    -0.28100
F3313       F  0.45636275  0.60382950  0.14422369    -0.20200
H3314       H  0.42942153  0.57010244  0.13050538     0.15500
F3315       F  0.46321009  0.53912507  0.14429986    -0.23900
H3316       H  0.49005346  0.57300813  0.15700225     0.17300
C3317       C  0.57545317  0.82107819  0.16825405    -0.28000
C3318       C  0.56002257  0.82284756  0.17790597     0.05600
C3319       C  0.54737846  0.80926208  0.19630103     0.25200
C3320       C  0.54987285  0.79404165  0.20434362    -0.12500
C3321       C  0.56526705  0.79219584  0.19478023    -0.26400
C3322       C  0.57829025  0.80610782  0.17691201     0.36100
C3323       C  0.55662838  0.83830406  0.16789245     0.05600
F3324       F  0.53225976  0.81038723  0.20599295    -0.20200
H3325       H  0.53973950  0.78369911  0.21830678     0.15500
F3326       F  0.59345529  0.80501035  0.16729039    -0.23900
H3327       H  0.58536948  0.83138538  0.15406309     0.17300
C3328       C  0.55512177  0.85112694  0.18542152     0.25300
C3329       C  0.55080223  0.86490759  0.17566695    -0.12400
C3330       C  0.54794890  0.86624848  0.14817153    -0.26500
C3331       C  0.54994191  0.85353234  0.13068936     0.36200
C3332       C  0.55422362  0.83984338  0.14051097    -0.28100
F3333       F  0.55805626  0.85043424  0.21196568    -0.20200
H3334       H  0.54961710  0.87447466  0.18969928     0.15500
F3335       F  0.54741788  0.85393483  0.10397938    -0.23900
H3336       H  0.55525181  0.83007944  0.12665377     0.17300
C3337       C  0.67068260  0.84350141  0.37082981    -0.28000
C3338       C  0.66819602  0.84506900  0.34339291     0.05600
C3339       C  0.67847036  0.86291522  0.33088989     0.25200
C3340       C  0.69089231  0.87896928  0.34561133    -0.12500
C3341       C  0.69323329  0.87769900  0.37324156    -0.26400
C3342       C  0.68319138  0.85967595  0.38572533     0.36100
C3343       C  0.65416781  0.82841475  0.32790397     0.05600
F3344       F  0.67582887  0.86500461  0.30461724    -0.20200
H3345       H  0.69823636  0.89258293  0.33532750     0.15500
F3346       F  0.68540006  0.85763882  0.41214627    -0.23900
H3347       H  0.66284293  0.82975601  0.38068729     0.17300
C3348       C  0.65979692  0.82249587  0.30494391     0.25300
C3349       C  0.64612697  0.80778218  0.28905294    -0.12400
C3350       C  0.62670603  0.79859461  0.29606588    -0.26500
C3351       C  0.62113738  0.80443641  0.31928755     0.36200
C3352       C  0.63480350  0.81923665  0.33501896    -0.28100
F3353       F  0.67857068  0.83070203  0.29828097    -0.20200
H3354       H  0.65078214  0.80313127  0.27175696     0.15500
F3355       F  0.60246016  0.79601356  0.32659752    -0.23900
H3356       H  0.63024488  0.82379745  0.35251568     0.17300
C3357       C  0.77434876  0.92100131  0.97820381    -0.28000
C3358       C  0.75849407  0.92241342  0.98650765     0.05600
C3359       C  0.74022202  0.90606601  0.98530228     0.25200
C3360       C  0.73793408  0.88858540  0.97632626    -0.12500
C3361       C  0.75381283  0.88693066  0.96844974    -0.26400
C3362       C  0.77214158  0.90352640  0.96931456     0.36100
C3363       C  0.76115408  0.94085565  0.99688861     0.05600
F3364       F  0.72452859  0.90705218  0.99258884    -0.20200
H3365       H  0.72364881  0.87628168  0.97573067     0.15500
F3366       F  0.78805299  0.90297092  0.96191935    -0.23900
H3367       H  0.78855606  0.93343139  0.97906189     0.17300
C3368       C  0.75555398  0.94212375  0.02298179     0.25300
C3369       C  0.75823934  0.95953130  0.03279445    -0.12400
C3370       C  0.76666441  0.97618075  0.01691123    -0.26500
C3371       C  0.77243838  0.97489658  0.99077670     0.36200
C3372       C  0.76969697  0.95739427  0.98097057    -0.28100
F3373       F  0.74800743  0.92662733  0.03930378    -0.20200
H3374       H  0.75378841  0.95994037  0.05305487     0.15500
F3375       F  0.78114116  0.99057069  0.97486310    -0.23900
H3376       H  0.77425681  0.95672893  0.96086608     0.17300
C3377       C  0.71334005  0.68970953  0.93798501    -0.28000
C3378       C  0.71724238  0.68169764  0.91565647     0.05600
C3379       C  0.72851968  0.69407546  0.89492654     0.25200
C3380       C  0.73449950  0.71374113  0.89584780    -0.12500
C3381       C  0.72926879  0.72133305  0.91737334    -0.26400
C3382       C  0.71926113  0.70920739  0.93890535     0.36100
C3383       C  0.70704715  0.66037325  0.91282429     0.05600
F3384       F  0.73331630  0.68706470  0.87348927    -0.20200
H3385       H  0.74231207  0.72279463  0.87913480     0.15500
F3386       F  0.71456612  0.71610982  0.96058590    -0.23900
H3387       H  0.70464054  0.68065283  0.95417212     0.17300
C3388       C  0.70528371  0.64833527  0.93442643     0.25300
C3389       C  0.69157105  0.62868417  0.93381601    -0.12400
C3390       C  0.67968895  0.62072819  0.91145399    -0.26500
C3391       C  0.68303195  0.63235225  0.88883806     0.36200
C3392       C  0.69638496  0.65191947  0.88963632    -0.28100
F3393       F  0.71633412  0.65575091  0.95647650    -0.20200
H3394       H  0.68947783  0.61999944  0.95134121     0.15500
F3395       F  0.67260054  0.62490649  0.86627526    -0.23900
H3396       H  0.69741042  0.66066989  0.87263898     0.17300
C3397       C  0.67967339  0.77691052  0.07580730    -0.28000
C3398       C  0.66574312  0.78251383  0.07454921     0.05600
C3399       C  0.66819685  0.79673753  0.05620875     0.25200
C3400       C  0.68361080  0.80430566  0.03849130    -0.12500
C3401       C  0.69700651  0.79793271  0.03857141    -0.26400
C3402       C  0.69523283  0.78459695  0.05819533     0.36100
C3403       C  0.64891321  0.77372624  0.09265437     0.05600
F3404       F  0.65517841  0.80268538  0.05445998    -0.20200
H3405       H  0.68453559  0.81463016  0.02389305     0.15500
F3406       F  0.70808057  0.77842562  0.05987817    -0.23900
H3407       H  0.67842701  0.76642766  0.09037798     0.17300
C3408       C  0.63810373  0.75375358  0.09605546     0.25300
C3409       C  0.62345862  0.74585683  0.11503797    -0.12400
C3410       C  0.61910622  0.75766266  0.13070117    -0.26500
C3411       C  0.62891408  0.77748687  0.12575591     0.36200
C3412       C  0.64377790  0.78539622  0.10714289    -0.28100
F3413       F  0.64172186  0.74186330  0.08112010    -0.20200
H3414       H  0.61603789  0.73052384  0.11818560     0.15500
F3415       F  0.62446596  0.78931984  0.13931296    -0.23900
H3416       H  0.65171578  0.80078695  0.10472873     0.17300
C3417       C  0.63015716  0.83524325  0.84057027    -0.28000
C3418       C  0.64558582  0.83491117  0.82839021     0.05600
C3419       C  0.64786570  0.83727760  0.80053331     0.25200
C3420       C  0.63513860  0.84049228  0.78539730    -0.12500
C3421       C  0.61983467  0.84120574  0.79773241    -0.26400
C3422       C  0.61736680  0.83822692  0.82558848     0.36100
C3423       C  0.65883389  0.83159232  0.84496881     0.05600
F3424       F  0.66267217  0.83700262  0.78805821    -0.20200
H3425       H  0.63745378  0.84270258  0.76410017     0.15500
F3426       F  0.60260977  0.83818637  0.83867641    -0.23900
H3427       H  0.62782400  0.83293043  0.86185524     0.17300
C3428       C  0.66651555  0.84184022  0.86885602     0.25300
C3429       C  0.67881561  0.83832400  0.88449027    -0.12400
C3430       C  0.68379500  0.82476086  0.87628025    -0.26500
C3431       C  0.67566132  0.81417467  0.85281526     0.36200
C3432       C  0.66332640  0.81758283  0.83738918    -0.28100
F3433       F  0.66266301  0.85570978  0.87655187    -0.45400
H3434       H  0.68499669  0.84667882  0.90240225     0.15500
F3435       F  0.67953051  0.80035598  0.84486723    -0.23900
H3436       H  0.65713260  0.80911842  0.81956908     0.17300
C3437       C  0.77324393  0.81040700  0.77123533    -0.28000
C3438       C  0.77727774  0.79620943  0.76302775     0.05600
C3439       C  0.77862048  0.78431230  0.78257012     0.25200
C3440       C  0.77486459  0.78596327  0.80952703    -0.12500
C3441       C  0.76965020  0.79943861  0.81749344    -0.26400
C3442       C  0.76937757  0.81200577  0.79795583     0.36100
C3443       C  0.77961626  0.79364027  0.73409167     0.05600
F3444       F  0.78267268  0.77047437  0.77547432    -0.20200
H3445       H  0.77524818  0.77615998  0.82394396     0.15500
F3446       F  0.76489334  0.82566260  0.80439449    -0.23900
H3447       H  0.77274249  0.82013241  0.75677646     0.17300
C3448       C  0.76609443  0.79227544  0.71500991     0.25300
C3449       C  0.76781065  0.78838381  0.68815370    -0.12400
C3450       C  0.78304542  0.78588670  0.67981348    -0.26500
C3451       C  0.79715705  0.78847014  0.69870394     0.36200
C3452       C  0.79535556  0.79220747  0.72542031    -0.28100
F3453       F  0.75071733  0.79377380  0.72249162    -0.20200
H3454       H  0.75675847  0.78646406  0.67416019     0.15500
F3455       F  0.81267742  0.78712745  0.69150719    -0.23900
H3456       H  0.80626919  0.79383652  0.73947584     0.17300
C3457       C  0.75088794  0.82924614  0.51511345    -0.28000
C3458       C  0.75855848  0.83696468  0.48999717     0.05600
C3459       C  0.76852363  0.82951025  0.47587542     0.25200
C3460       C  0.77061638  0.81464367  0.48681989    -0.12500
C3461       C  0.76296654  0.80703929  0.51204173    -0.26400
C3462       C  0.75282796  0.81437968  0.52591253     0.36100
C3463       C  0.75646430  0.85311722  0.47954390     0.05600
F3464       F  0.77621597  0.83651263  0.45154123    -0.20200
H3465       H  0.77863610  0.80939890  0.47582925     0.15500
F3466       F  0.74470362  0.80721325  0.55000084    -0.23900
H3467       H  0.74360165  0.83498433  0.52678364     0.17300
C3468       C  0.73892782  0.85284818  0.48186250     0.25300
C3469       C  0.73753394  0.86884194  0.47472231    -0.12400
C3470       C  0.75356695  0.88563874  0.46528872    -0.26500
C3471       C  0.77106721  0.88581359  0.46261101     0.36200
C3472       C  0.77238504  0.86965288  0.46943504    -0.28100
F3473       F  0.72308737  0.83716474  0.49132654    -0.20200
H3474       H  0.72381646  0.86808090  0.47700895     0.15500
F3475       F  0.78708528  0.90171462  0.45412557    -0.23900
H3476       H  0.78613880  0.87041071  0.46793086     0.17300
C3477       C  0.63431732  0.70540342  0.55599962    -0.28000
C3478       C  0.64197400  0.71689225  0.57883179     0.05600
C3479       C  0.62925029  0.71667803  0.59828705     0.25200
C3480       C  0.60942245  0.70439270  0.59561600    -0.12500
C3481       C  0.60194977  0.69192275  0.57372770    -0.26400
C3482       C  0.61454702  0.69286970  0.55359747     0.36100
C3483       C  0.66311511  0.72721685  0.58338109     0.05600
F3484       F  0.63605623  0.72779620  0.62038725    -0.20200
H3485       H  0.60002308  0.70364936  0.61159358     0.15500
F3486       F  0.60780012  0.68085209  0.53235022    -0.23900
H3487       H  0.64377748  0.70523020  0.54079676     0.17300
C3488       C  0.67081813  0.72253796  0.60543358     0.25300
C3489       C  0.69057957  0.72961578  0.60731228    -0.12400
C3490       C  0.70316614  0.74189335  0.58770632    -0.26500
C3491       C  0.69566917  0.74763184  0.56660858     0.36200
C3492       C  0.67579358  0.74014596  0.56430719    -0.28100
F3493       F  0.65911495  0.70986026  0.62404077    -0.20200
H3494       H  0.69599222  0.72465464  0.62338429     0.15500
F3495       F  0.70739867  0.75914524  0.54704351    -0.23900
H3496       H  0.67021938  0.74388433  0.54709313     0.17300
C3497       C  0.64304923  0.54821381  0.11418012    -0.28000
C3498       C  0.65383869  0.54462600  0.09534391     0.05600
C3499       C  0.67016824  0.54418238  0.10392255     0.25200
C3500       C  0.67614506  0.54826697  0.13042771    -0.12500
C3501       C  0.66604105  0.55298271  0.14898808    -0.26400
C3502       C  0.64906100  0.55237054  0.14078636     0.36100
C3503       C  0.64860225  0.54240317  0.06662943     0.05600
F3504       F  0.68052623  0.54007687  0.08654096    -0.20200
H3505       H  0.68911583  0.54833242  0.13623302     0.15500
F3506       F  0.63901068  0.55708085  0.15789405    -0.23900
H3507       H  0.63043369  0.54870530  0.10800152     0.17300
C3508       C  0.62976105  0.52986293  0.05851690     0.25300
C3509       C  0.62457956  0.52918575  0.03180330    -0.12400
C3510       C  0.63806037  0.54091320  0.01241861    -0.26500
C3511       C  0.65723364  0.55248547  0.02025679     0.36200
C3512       C  0.66235852  0.55336821  0.04717758    -0.28100
F3513       F  0.61633746  0.51826900  0.07644895    -0.20200
H3514       H  0.60977718  0.51966100  0.02641841     0.15500
F3515       F  0.67086651  0.56353622  0.00224590    -0.23900
H3516       H  0.67701687  0.56311141  0.05296652     0.17300
C3517       C  0.55913823  0.48996027  0.34475467    -0.28000
C3518       C  0.57625077  0.48956418  0.34686526     0.05600
C3519       C  0.57584922  0.47324086  0.35752271     0.25200
C3520       C  0.55841136  0.45729821  0.36484109    -0.12500
C3521       C  0.54114290  0.45754885  0.36240800    -0.26400
C3522       C  0.54178866  0.47424576  0.35238078     0.36100
C3523       C  0.59412303  0.50590050  0.33646990     0.05600
F3524       F  0.59223294  0.47257716  0.36051033    -0.20200
H3525       H  0.55848294  0.44480319  0.37260711     0.15500
F3526       F  0.52572867  0.47555975  0.34977085    -0.23900
H3527       H  0.55921408  0.50254319  0.33700441     0.17300
C3528       C  0.59467195  0.51233527  0.31028537     0.25300
C3529       C  0.61132931  0.52779100  0.30030818    -0.12400
C3530       C  0.62801653  0.53704672  0.31595185    -0.26500
C3531       C  0.62741515  0.53070512  0.34234401     0.36200
C3532       C  0.61055475  0.51527809  0.35246712    -0.28100
F3533       F  0.57926825  0.50319844  0.29393985    -0.20200
H3534       H  0.61125937  0.53214761  0.27988688     0.15500
F3535       F  0.64325109  0.53878588  0.35799128    -0.23900
H3536       H  0.61034887  0.51056558  0.37275882     0.17300
C3537       C  0.74017818  0.65026472  0.40151037    -0.28000
C3538       C  0.75945135  0.66464648  0.40079771     0.05600
C3539       C  0.77133779  0.66414532  0.38069248     0.25200
C3540       C  0.76386176  0.64967988  0.36131679    -0.12500
C3541       C  0.74436552  0.63545906  0.36156683    -0.26400
C3542       C  0.73265490  0.63585695  0.38220468     0.36100
C3543       C  0.76684637  0.68015983  0.42099535     0.05600
F3544       F  0.78993896  0.67814890  0.37906440    -0.20200
H3545       H  0.77325484  0.64998292  0.34564416     0.15500
F3546       F  0.71370436  0.62282524  0.38328362    -0.23900
H3547       H  0.73082392  0.65033072  0.41697262     0.17300
C3548       C  0.75805083  0.69128504  0.42468960     0.25300
C3549       C  0.76438269  0.70517519  0.44477088    -0.12400
C3550       C  0.77927663  0.70794086  0.46208174    -0.26500
C3551       C  0.78818656  0.69685206  0.45815471     0.36200
C3552       C  0.78215899  0.68331234  0.43757112    -0.28100
F3553       F  0.74316445  0.68856296  0.40903306    -0.20200
H3554       H  0.75704178  0.71322369  0.44746342     0.15500
F3555       F  0.80248948  0.69879296  0.47444342    -0.23900
H3556       H  0.78901352  0.67477440  0.43516287     0.17300
C3557       C  0.60774585  0.59961803  0.26065632    -0.28000
C3558       C  0.60914513  0.61479215  0.24516807     0.05600
C3559       C  0.62281719  0.62226640  0.22464041     0.25200
C3560       C  0.63575700  0.61565225  0.22098930    -0.12500
C3561       C  0.63508156  0.60116255  0.23733060    -0.26400
C3562       C  0.62042746  0.59263333  0.25654258     0.36100
C3563       C  0.59852469  0.62479703  0.25255486     0.05600
F3564       F  0.62462117  0.63702999  0.20948337    -0.20200
H3565       H  0.64697602  0.62254033  0.20622097     0.15500
F3566       F  0.61946550  0.57877558  0.27292469    -0.23900
H3567       H  0.59738992  0.59377099  0.27669291     0.17300
C3568       C  0.58400463  0.62398955  0.23611720     0.25300
C3569       C  0.57695570  0.63658788  0.24037626    -0.12400
C3570       C  0.58474148  0.65055492  0.26052886    -0.26500
C3571       C  0.59847445  0.65058931  0.27785029     0.36200
C3572       C  0.60510617  0.63766832  0.27405454    -0.28100
F3573       F  0.57757341  0.61189979  0.21494562    -0.20200
H3574       H  0.56662600  0.63652736  0.22650002     0.15500
F3575       F  0.60633759  0.66393836  0.29742839    -0.23900
H3576       H  0.61641252  0.63863440  0.28677725     0.17300
C3577       C  0.83295413  0.56547848  0.30725724    -0.28000
C3578       C  0.82413381  0.57321256  0.32311980     0.05600
C3579       C  0.83002930  0.57805956  0.34975115     0.25200
C3580       C  0.84403132  0.57461174  0.36044779    -0.12500
C3581       C  0.85262886  0.56643462  0.34481765    -0.26400
C3582       C  0.84721677  0.56231488  0.31780400     0.36100
C3583       C  0.80831047  0.57548180  0.31212570     0.05600
F3584       F  0.82173784  0.58545031  0.36576789    -0.20200
H3585       H  0.84793795  0.57811578  0.38120802     0.15500
F3586       F  0.85519622  0.55466841  0.30170943    -0.23900
H3587       H  0.82869961  0.56179441  0.28662909     0.17300
C3588       C  0.80871871  0.59306784  0.31376714     0.25300
C3589       C  0.79321589  0.59471494  0.30466553    -0.12400
C3590       C  0.77687434  0.57882025  0.29394469    -0.26500
C3591       C  0.77678503  0.56132533  0.29157373     0.36200
C3592       C  0.79239422  0.55977550  0.30049893    -0.28100
F3593       F  0.82415763  0.60868984  0.32412613    -0.20200
H3594       H  0.79390889  0.60842758  0.30652428     0.15500
F3595       F  0.76159538  0.54560902  0.28092125    -0.23900
H3596       H  0.79184395  0.54610706  0.29896134     0.17300
C3597       C  0.15361446  0.73531956  0.14204687    -0.28000
C3598       C  0.15881173  0.73708598  0.16904718     0.05600
C3599       C  0.14886170  0.72109994  0.18582192     0.25200
C3600       C  0.13469244  0.70348394  0.17538729    -0.12500
C3601       C  0.12989306  0.70148708  0.14805433    -0.26400
C3602       C  0.13933213  0.71788263  0.13165910     0.36100
C3603       C  0.17455412  0.75566854  0.17932763     0.05600
F3604       F  0.15255097  0.72265291  0.21241209    -0.20200
H3605       H  0.12755646  0.69137310  0.18874042     0.15500
F3606       F  0.13478661  0.71722493  0.10547078    -0.23900
H3607       H  0.16084791  0.74747881  0.12877480     0.17300
C3608       C  0.18985180  0.75660503  0.19410178     0.25300
C3609       C  0.20494857  0.77427872  0.20254059    -0.12400
C3610       C  0.20517113  0.79144481  0.19660842    -0.26500
C3611       C  0.18975634  0.79046702  0.18199284     0.36200
C3612       C  0.17473573  0.77279183  0.17339519    -0.28100
F3613       F  0.19057057  0.74050962  0.19970707    -0.20200
H3614       H  0.21652644  0.77449540  0.21376949     0.15500
F3615       F  0.18934096  0.80658215  0.17539005    -0.23900
H3616       H  0.16315529  0.77247259  0.16203530     0.17300
C3617       C  0.99336141  0.56685813  0.21174275    -0.28000
C3618       C  0.99714500  0.57598155  0.23657895     0.05600
C3619       C  0.01520998  0.59206425  0.24129387     0.25200
C3620       C  0.02935422  0.59870484  0.22154623    -0.12500
C3621       C  0.02583837  0.58926193  0.19686868    -0.26400
C3622       C  0.00746392  0.57338288  0.19201785     0.36100
C3623       C  0.98237950  0.56838055  0.25773484     0.05600
F3624       F  0.01910943  0.60142207  0.26498292    -0.20200
H3625       H  0.04314707  0.61112041  0.22572119     0.15500
F3626       F  0.00286486  0.56429018  0.16808880    -0.23900
H3627       H  0.97949148  0.55448405  0.20773186     0.17300
C3628       C  0.96423716  0.56635701  0.25354880     0.25300
C3629       C  0.95057101  0.55942774  0.27399727    -0.12400
C3630       C  0.95464525  0.55416212  0.29889367    -0.26500
C3631       C  0.97284398  0.55601367  0.30276687     0.36200
C3632       C  0.98649052  0.56308182  0.28239521    -0.28100
F3633       F  0.95994177  0.57159575  0.22995432    -0.20200
H3634       H  0.93677980  0.55822661  0.27033439     0.15500
F3635       F  0.97778801  0.55155284  0.32643694    -0.23900
H3636       H  0.00037403  0.56443832  0.28588283     0.17300
C3637       C  0.83933404  0.75509091  0.01487295    -0.28000
C3638       C  0.84150885  0.77340389  0.01308606     0.05600
C3639       C  0.85925453  0.78938166  0.01954671     0.25200
C3640       C  0.87458518  0.78697500  0.02756104    -0.12500
C3641       C  0.87256166  0.76860117  0.02907585    -0.26400
C3642       C  0.85458429  0.75261890  0.02268494     0.36100
C3643       C  0.82535670  0.77563092  0.00348979     0.05600
F3644       F  0.86194387  0.80733176  0.01716187    -0.20200
H3645       H  0.88814419  0.79956140  0.03217454     0.15500
F3646       F  0.85156371  0.73449929  0.02387971    -0.23900
H3647       H  0.82572047  0.74260793  0.01007559     0.17300
C3648       C  0.81692764  0.76810270  0.97863662     0.25300
C3649       C  0.80188282  0.77037744  0.96936126    -0.12400
C3650       C  0.79468147  0.77996613  0.98476892    -0.26500
C3651       C  0.80282756  0.78711238  0.01001832     0.36200
C3652       C  0.81814704  0.78506795  0.01913129    -0.28100
F3653       F  0.82360629  0.75898808  0.96295018    -0.20200
H3654       H  0.79595497  0.76472106  0.94987168     0.15500
F3655       F  0.79647393  0.79660230  0.02552077    -0.23900
H3656       H  0.82437695  0.79080977  0.03845708     0.17300
C3657       C  0.04272268  0.82809844  0.97784059    -0.28000
C3658       C  0.05798063  0.83889796  0.99533463     0.05600
C3659       C  0.05508378  0.83530348  0.02284517     0.25200
C3660       C  0.03721968  0.82133854  0.03258467    -0.12500
C3661       C  0.02176312  0.81047475  0.01516951    -0.26400
C3662       C  0.02488792  0.81391786  0.98749905     0.36100
C3663       C  0.07658285  0.85440435  0.98488441     0.05600
F3664       F  0.06935520  0.84576877  0.04041294    -0.20200
H3665       H  0.03550125  0.81918963  0.05395306     0.15500
F3666       F  0.01084092  0.80355860  0.96962638    -0.23900
H3667       H  0.04468680  0.83058636  0.95654212     0.17300
C3668       C  0.09391247  0.85490677  0.99059426     0.25300
C3669       C  0.11137487  0.87010756  0.98143711    -0.12400
C3670       C  0.11194027  0.88516574  0.96645102    -0.26500
C3671       C  0.09439367  0.88420771  0.96010161     0.36200
C3672       C  0.07703062  0.86904159  0.96927082    -0.28100
F3673       F  0.09391268  0.84056842  0.00477868    -0.20200
H3674       H  0.12448766  0.87020670  0.98642431     0.15500
F3675       F  0.09385915  0.89781359  0.94479051    -0.23900
H3676       H  0.06384820  0.86886776  0.96445843     0.17300
C3677       C  0.81520833  0.66113263  0.19110521    -0.28000
C3678       C  0.81225941  0.66718699  0.16610208     0.05600
C3679       C  0.79353102  0.65996488  0.15665681     0.25200
C3680       C  0.77808729  0.64686616  0.17180335    -0.12500
C3681       C  0.78094144  0.64068685  0.19665885    -0.26400
C3682       C  0.79965700  0.64793452  0.20635201     0.36100
C3683       C  0.82869000  0.68073858  0.14968986     0.05600
F3684       F  0.79010860  0.66577049  0.13291273    -0.20200
H3685       H  0.76377105  0.64164753  0.16411934     0.15500
F3686       F  0.80293454  0.64175544  0.22991659    -0.23900
H3687       H  0.82957793  0.66632481  0.19853880     0.17300
C3688       C  0.84315865  0.69784632  0.16073288     0.25300
C3689       C  0.85892971  0.71016894  0.14540500    -0.12400
C3690       C  0.86077914  0.70566016  0.11883365    -0.26500
C3691       C  0.84588074  0.68890860  0.10737342     0.36200
C3692       C  0.83003271  0.67653010  0.12281106    -0.28100
F3693       F  0.84212702  0.70265216  0.18638967    -0.20200
H3694       H  0.86999793  0.72311914  0.15467938     0.15500
F3695       F  0.84696726  0.68398871  0.08180467    -0.23900
H3696       H  0.81903679  0.66333667  0.11397913     0.17300
C3697       C  0.03819752  0.69945545  0.05493013    -0.28000
C3698       C  0.04575877  0.71435993  0.07367626     0.05600
C3699       C  0.06166131  0.71753859  0.08897292     0.25200
C3700       C  0.06900593  0.70506578  0.08685840    -0.12500
C3701       C  0.06037875  0.68919377  0.06971408    -0.26400
C3702       C  0.04538112  0.68690692  0.05298166     0.36100
C3703       C  0.03477035  0.72398739  0.08026026     0.05600
F3704       F  0.06910248  0.73177703  0.10735167    -0.20200
H3705       H  0.08038262  0.70689741  0.10016439     0.15500
F3706       F  0.03694026  0.67184392  0.03592401    -0.23900
H3707       H  0.02589903  0.69680681  0.04302931     0.17300
C3708       C  0.03877693  0.74137590  0.06835567     0.25300
C3709       C  0.02596866  0.74826950  0.07139140    -0.12400
C3710       C  0.00920617  0.73794979  0.08652781    -0.26500
C3711       C  0.00610548  0.72138699  0.10013336     0.36200
C3712       C  0.01875299  0.71446013  0.09689155    -0.28100
F3713       F  0.05451907  0.75115689  0.05284863    -0.20200
H3714       H  0.02850821  0.76095681  0.06057717     0.15500
F3715       F  0.99033785  0.71143465  0.11560888    -0.23900
H3716       H  0.01561881  0.70116037  0.10647427     0.17300
C3717       C  0.87127252  0.56378957  0.54859338    -0.28000
C3718       C  0.87022868  0.55015348  0.56706465     0.05600
C3719       C  0.87102136  0.53418215  0.55792932     0.25200
C3720       C  0.87369965  0.53232335  0.53091766    -0.12500
C3721       C  0.87586708  0.54643866  0.51241737    -0.26400
C3722       C  0.87413562  0.56202674  0.52138716     0.36100
C3723       C  0.86766476  0.55235312  0.59571813     0.05600
F3724       F  0.86912756  0.52033476  0.57512227    -0.20200
H3725       H  0.87454549  0.51992802  0.52453131     0.15500
F3726       F  0.87618397  0.57597873  0.50429771    -0.23900
H3727       H  0.87038417  0.57607300  0.55541309     0.17300
C3728       C  0.88106157  0.55370561  0.61487800     0.25300
C3729       C  0.87885479  0.55711580  0.64173243    -0.12400
C3730       C  0.86327615  0.55917888  0.64970251    -0.26500
C3731       C  0.84927478  0.55648158  0.63055311     0.36200
C3732       C  0.85163301  0.55333118  0.60388895    -0.28100
F3733       F  0.89669316  0.55264646  0.60742659    -0.20200
H3734       H  0.88971295  0.55894722  0.65602038     0.15500
F3735       F  0.83327368  0.55702301  0.63745325    -0.23900
H3736       H  0.84094305  0.55177591  0.58946023     0.17300
C3737       C  0.75298629  0.58193964  0.82385237    -0.28000
C3738       C  0.73586582  0.56562721  0.81622023     0.05600
C3739       C  0.73682585  0.55202659  0.79965988     0.25200
C3740       C  0.75458978  0.55459348  0.79146296    -0.12500
C3741       C  0.77175960  0.57072101  0.79966116    -0.26400
C3742       C  0.77070362  0.58446031  0.81589404     0.36100
C3743       C  0.71727223  0.56270412  0.82659201     0.05600
F3744       F  0.72065053  0.53586727  0.79229559    -0.20200
H3745       H  0.75488874  0.54383260  0.77886165     0.15500
F3746       F  0.78677438  0.60010765  0.82487096    -0.23900
H3747       H  0.75265183  0.59272763  0.83635430     0.17300
C3748       C  0.71496313  0.56474671  0.85396926     0.25300
C3749       C  0.69776136  0.56259063  0.86371643    -0.12400
C3750       C  0.68225657  0.55822861  0.84653767    -0.26500
C3751       C  0.68454305  0.55602678  0.81908466     0.36200
C3752       C  0.70185952  0.55821852  0.80932186    -0.28100
F3753       F  0.72922744  0.56838201  0.87149175    -0.20200
H3754       H  0.69662470  0.56424599  0.88496182     0.15500
F3755       F  0.67013049  0.55176812  0.80158722    -0.23900
H3756       H  0.70332755  0.55668359  0.78812649     0.17300
C3757       C  0.82177741  0.66320542  0.70262592    -0.28000
C3758       C  0.81444754  0.65772765  0.67669158     0.05600
C3759       C  0.81059050  0.63992492  0.66678207     0.25200
C3760       C  0.81450499  0.62800294  0.68228979    -0.12500
C3761       C  0.82247483  0.63362881  0.70793253    -0.26400
C3762       C  0.82577004  0.65125331  0.71824701     0.36100
C3763       C  0.81077760  0.67056859  0.66000654     0.05600
F3764       F  0.80291090  0.63400944  0.64213863    -0.20200
H3765       H  0.81156966  0.61441077  0.67393677     0.15500
F3766       F  0.83362838  0.65734584  0.74275776    -0.23900
H3767       H  0.82483271  0.67695993  0.71049599     0.17300
C3768       C  0.79877143  0.67722545  0.66928894     0.25300
C3769       C  0.79569208  0.68975125  0.65373610    -0.12400
C3770       C  0.80436380  0.69567985  0.62852495    -0.26500
C3771       C  0.81583671  0.68841834  0.61880157     0.36200
C3772       C  0.81912878  0.67606651  0.63460081    -0.28100
F3773       F  0.78980695  0.67134833  0.69321906    -0.20200
H3774       H  0.78647623  0.69483692  0.66144653     0.15500
F3775       F  0.82437336  0.69373657  0.59453696    -0.23900
H3776       H  0.82841646  0.67097970  0.62718483     0.17300
C3777       C  0.88699528  0.64889615  0.90529507    -0.28000
C3778       C  0.88293521  0.66388999  0.90343118     0.05600
C3779       C  0.87101410  0.66358485  0.88283043     0.25200
C3780       C  0.86313372  0.64847384  0.86465884    -0.12500
C3781       C  0.86732264  0.63349834  0.86608168    -0.26400
C3782       C  0.87936685  0.63386078  0.88679939     0.36100
C3783       C  0.89131608  0.67995623  0.92271881     0.05600
F3784       F  0.86767700  0.67837593  0.87951380    -0.20200
H3785       H  0.85421172  0.64891528  0.84886297     0.15500
F3786       F  0.88433429  0.62011249  0.88879254    -0.23900
H3787       H  0.89622737  0.64892075  0.92101034     0.17300
C3788       C  0.87959128  0.68531344  0.93664790     0.25300
C3789       C  0.88755978  0.70033281  0.95499919    -0.12400
C3790       C  0.90734307  0.71016112  0.96015676    -0.26500
C3791       C  0.91911204  0.70497910  0.94586645     0.36200
C3792       C  0.91111756  0.68999536  0.92736622    -0.28100
F3793       F  0.86030691  0.67541039  0.93347393    -0.20200
H3794       H  0.87810937  0.70386926  0.96583323     0.15500
F3795       F  0.93817778  0.71364347  0.95076742    -0.23900
H3796       H  0.92038698  0.68608064  0.91681582     0.17300
C3797       C  0.99955459  0.78827156  0.21455982    -0.28000
C3798       C  0.98557225  0.78073576  0.23480593     0.05600
C3799       C  0.96624811  0.77035559  0.22762951     0.25200
C3800       C  0.96100172  0.76753524  0.20090033    -0.12500
C3801       C  0.97484057  0.77477211  0.18037279    -0.26400
C3802       C  0.99428364  0.78523180  0.18753372     0.36100
C3803       C  0.99095786  0.78269305  0.26336410     0.05600
F3804       F  0.95237641  0.76216942  0.24649435    -0.20200
H3805       H  0.94587170  0.75923893  0.19643205     0.15500
F3806       F  0.00815888  0.79238734  0.16861149    -0.23900
H3807       H  0.01458339  0.79642649  0.21969405     0.17300
C3808       C  0.00465377  0.77804203  0.27216746     0.25300
C3809       C  0.00915828  0.77922052  0.29915038    -0.12400
C3810       C  0.00024033  0.78517026  0.31791552    -0.26500
C3811       C  0.98619518  0.78937236  0.30938097     0.36200
C3812       C  0.98165279  0.78819819  0.28224718    -0.28100
F3813       F  0.01357153  0.77216590  0.25476297    -0.20200
H3814       H  0.02001339  0.77585482  0.30538184     0.15500
F3815       F  0.97775236  0.79568632  0.32693261    -0.23900
H3816       H  0.97111979  0.79196261  0.27588554     0.17300
C3817       C  0.16301412  0.93892147  0.51465257    -0.28000
C3818       C  0.15675449  0.93870533  0.48850083     0.05600
C3819       C  0.16585540  0.95564112  0.47339362     0.25200
C3820       C  0.18087791  0.97249432  0.48448180    -0.12500
C3821       C  0.18692953  0.97290069  0.51101641    -0.26400
C3822       C  0.17778025  0.95571959  0.52588508     0.36100
C3823       C  0.14038063  0.92080831  0.47774963     0.05600
F3824       F  0.16022223  0.95586136  0.44793625    -0.20200
H3825       H  0.18741750  0.98537933  0.47249060     0.15500
F3826       F  0.18291781  0.95504922  0.55146131    -0.23900
H3827       H  0.15611214  0.92605467  0.52668679     0.17300
C3828       C  0.14116975  0.90380158  0.47684222     0.25300
C3829       C  0.12513433  0.88658968  0.46914402    -0.12400
C3830       C  0.10771124  0.88573670  0.46273218    -0.26500
C3831       C  0.10699085  0.90288609  0.46351139     0.36200
C3832       C  0.12326310  0.92023363  0.47058204    -0.28100
F3833       F  0.15744412  0.90378682  0.48369091    -0.20200
H3834       H  0.12635746  0.87381516  0.46859797     0.15500
F3835       F  0.09044694  0.90287373  0.45848820    -0.23900
H3836       H  0.12226890  0.93313042  0.47156482     0.17300
C3837       C  0.93708825  0.77659011  0.52045870    -0.28000
C3838       C  0.92066622  0.76791462  0.50429574     0.05600
C3839       C  0.92246614  0.76337880  0.47777442     0.25200
C3840       C  0.94028132  0.76729857  0.46782049    -0.12500
C3841       C  0.95685214  0.77618960  0.48385693    -0.26400
C3842       C  0.95496889  0.78063938  0.51049093     0.36100
C3843       C  0.90202458  0.76482361  0.51464669     0.05600
F3844       F  0.90720970  0.75613726  0.46101990    -0.20200
H3845       H  0.94113362  0.76376002  0.44720838     0.15500
F3846       F  0.97043227  0.78944023  0.52675803    -0.23900
H3847       H  0.93608100  0.78041299  0.54086880     0.17300
C3848       C  0.88511406  0.74699952  0.51241880     0.25300
C3849       C  0.86751317  0.74483567  0.52079197    -0.12400
C3850       C  0.86643119  0.76035438  0.53178155    -0.26500
C3851       C  0.88361626  0.77797721  0.53489948     0.36200
C3852       C  0.90107552  0.78009203  0.52640668    -0.28100
F3853       F  0.88567597  0.73160962  0.50255353    -0.20200
H3854       H  0.85471304  0.73102587  0.51846267     0.15500
F3855       F  0.88372055  0.79333779  0.54614577    -0.23900
H3856       H  0.91391289  0.79390328  0.52855351     0.17300
C3857       C  0.14939316  0.84265117  0.36813875    -0.28000
C3858       C  0.14703190  0.83412862  0.34286436     0.05600
C3859       C  0.12852149  0.82233745  0.33294577     0.25200
C3860       C  0.11273437  0.81905443  0.34805510    -0.12500
C3861       C  0.11493884  0.82746247  0.37335877    -0.26400
C3862       C  0.13346033  0.83950513  0.38325933     0.36100
C3863       C  0.16383018  0.83718021  0.32716075     0.05600
F3864       F  0.12562435  0.81351602  0.30893574    -0.20200
H3865       H  0.09864131  0.80963569  0.33993893     0.15500
F3866       F  0.13617464  0.84872020  0.40690279    -0.23900
H3867       H  0.16360718  0.85198533  0.37594443     0.17300
C3868       C  0.16599161  0.84295009  0.30029880     0.25300
C3869       C  0.18181970  0.84547984  0.28567933    -0.12400
C3870       C  0.19600626  0.84273529  0.29769118    -0.26500
C3871       C  0.19383049  0.83707564  0.32474430     0.36200
C3872       C  0.17780486  0.83418280  0.33912016    -0.28100
F3873       F  0.15318461  0.84684912  0.28845330    -0.20200
H3874       H  0.18325121  0.85021787  0.26516493     0.15500
F3875       F  0.20727481  0.83464013  0.33763346    -0.23900
H3876       H  0.17633668  0.82965960  0.35975497     0.17300
C3877       C  0.95051247  0.68774532  0.39323211    -0.28000
C3878       C  0.93876144  0.68073578  0.41590727     0.05600
C3879       C  0.93947308  0.69378675  0.43509946     0.25200
C3880       C  0.95279316  0.71333292  0.43260664    -0.12500
C3881       C  0.96563747  0.72008649  0.41107914    -0.26400
C3882       C  0.96398278  0.70725096  0.39089767     0.36100
C3883       C  0.92854172  0.65987363  0.42134696     0.05600
F3884       F  0.92790965  0.68749374  0.45683197    -0.20200
H3885       H  0.95395318  0.72302305  0.44841624     0.15500
F3886       F  0.97605564  0.71339713  0.36969291    -0.23900
H3887       H  0.95020780  0.67790630  0.37825791     0.17300
C3888       C  0.91487637  0.64673081  0.40344764     0.25300
C3889       C  0.90838391  0.62713026  0.40602416    -0.12400
C3890       C  0.91603448  0.62050951  0.42573991    -0.26500
C3891       C  0.92897465  0.63349919  0.44439056     0.36200
C3892       C  0.93485617  0.65297422  0.44249423    -0.28100
F3893       F  0.90869478  0.65294386  0.38259998    -0.20200
H3894       H  0.89861837  0.61732314  0.39122862     0.15500
F3895       F  0.93675441  0.62748859  0.46343772    -0.23900
H3896       H  0.94553063  0.66288519  0.45631472     0.17300
C3897       C  0.11987411  0.67179612  0.88337867    -0.28000
C3898       C  0.10425681  0.66967753  0.89849120     0.05600
C3899       C  0.08992833  0.67197834  0.88595470     0.25200
C3900       C  0.09148729  0.67672556  0.85889466    -0.12500
C3901       C  0.10736062  0.67935338  0.84409964    -0.26400
C3902       C  0.12149825  0.67672441  0.85640234     0.36100
C3903       C  0.10301904  0.66497824  0.92721668     0.05600
F3904       F  0.07456990  0.66986087  0.89992124    -0.20200
H3905       H  0.08072604  0.67917447  0.84973980     0.15500
F3906       F  0.13727009  0.67978634  0.84262026    -0.23900
H3907       H  0.13112539  0.67022538  0.89272269     0.17300
C3908       C  0.10430893  0.64907170  0.93562045     0.25300
C3909       C  0.10270059  0.64434951  0.96263889    -0.12400
C3910       C  0.09949813  0.65521890  0.98182528    -0.26500
C3911       C  0.09867080  0.67142906  0.97346881     0.36200
C3912       C  0.10038072  0.67621632  0.94634304    -0.28100
F3913       F  0.10605147  0.63749465  0.91751199    -0.20200
H3914       H  0.10328740  0.63171573  0.96848228     0.15500
F3915       F  0.09512500  0.68197674  0.99124068    -0.23900
H3916       H  0.09940713  0.68858023  0.94019850     0.17300
C3917       C  0.24145319  0.80775923  0.70327525    -0.28000
C3918       C  0.24232139  0.82424500  0.69243588     0.05600
C3919       C  0.22520485  0.82483241  0.69014426     0.25200
C3920       C  0.20766759  0.80893898  0.69716816    -0.12500
C3921       C  0.20665472  0.79209552  0.70703767    -0.26400
C3922       C  0.22393134  0.79191402  0.71060926     0.36100
C3923       C  0.26066405  0.83986594  0.68123316     0.05600
F3924       F  0.22536089  0.84075157  0.68094932    -0.20200
H3925       H  0.19480400  0.80982997  0.69456201     0.15500
F3926       F  0.22401560  0.77630765  0.72054195    -0.23900
H3927       H  0.25429300  0.80674216  0.70503474     0.17300
C3928       C  0.27829134  0.84670150  0.69458941     0.25300
C3929       C  0.29536062  0.86069602  0.68275975    -0.12400
C3930       C  0.29533009  0.86778230  0.65711890    -0.26500
C3931       C  0.27772454  0.86079230  0.64375202     0.36200
C3932       C  0.26070048  0.84716411  0.65576890    -0.28100
F3933       F  0.27911427  0.83980967  0.71895857    -0.20200
H3934       H  0.30870152  0.86557693  0.69337173     0.15500
F3935       F  0.27687299  0.86696022  0.61886784    -0.23900
H3936       H  0.24751954  0.84179138  0.64459369     0.17300
C3937       C  0.96543007  0.59966394  0.75243483    -0.28000
C3938       C  0.97816202  0.61657462  0.73900435     0.05600
C3939       C  0.97085205  0.62558266  0.72271723     0.25200
C3940       C  0.95117975  0.61863903  0.72152225    -0.12500
C3941       C  0.93839156  0.60236766  0.73612822    -0.26400
C3942       C  0.94559894  0.59239736  0.75072709     0.36100
C3943       C  0.99886296  0.62666667  0.74500988     0.05600
F3944       F  0.98287262  0.64186400  0.70935371    -0.20200
H3945       H  0.94596476  0.62652836  0.71014161     0.15500
F3946       F  0.93365855  0.57665226  0.76515224    -0.23900
H3947       H  0.97088336  0.59266948  0.76527112     0.17300
C3948       C  0.00605404  0.64135391  0.76407358     0.25300
C3949       C  0.02572358  0.65361431  0.76658100    -0.12400
C3950       C  0.03867001  0.65149653  0.75021490    -0.26500
C3951       C  0.03154345  0.63603975  0.73212719     0.36200
C3952       C  0.01169365  0.62374208  0.72952490    -0.28100
F3953       F  0.99394849  0.64464568  0.77901823    -0.20200
H3954       H  0.03085334  0.66549188  0.78041648     0.15500
F3955       F  0.04354212  0.63381296  0.71542916    -0.23900
H3956       H  0.00631224  0.61261676  0.71448102     0.17300
C3957       C  0.08696772  0.75387549  0.60053014    -0.28000
C3958       C  0.09438646  0.77369804  0.59847903     0.05600
C3959       C  0.10914860  0.78590662  0.61583865     0.25200
C3960       C  0.11649603  0.77837638  0.63461157    -0.12500
C3961       C  0.10937899  0.75852070  0.63640537    -0.26400
C3962       C  0.09438979  0.74631337  0.61909375     0.36100
C3963       C  0.08679509  0.78141541  0.57789226     0.05600
F3964       F  0.11615153  0.80509492  0.61505979    -0.20200
H3965       H  0.12778451  0.78814875  0.64781668     0.15500
F3966       F  0.08656066  0.72702206  0.62033620    -0.23900
H3967       H  0.07551669  0.74420617  0.58742850     0.17300
C3968       C  0.09905141  0.79497612  0.55916039     0.25300
C3969       C  0.09157196  0.80097219  0.53855694    -0.12400
C3970       C  0.07174609  0.79385254  0.53636792    -0.26500
C3971       C  0.05953949  0.78067526  0.55565734     0.36200
C3972       C  0.06703892  0.77449214  0.57605803    -0.28100
F3973       F  0.11822366  0.80195469  0.56019655    -0.20200
H3974       H  0.10137235  0.81110318  0.52410270     0.15500
F3975       F  0.04029569  0.77310821  0.55427991    -0.23900
H3976       H  0.05735946  0.76408363  0.59034968     0.17300
C3977       C  0.16599931  0.83235385  0.80234567    -0.28000
C3978       C  0.16379757  0.83093805  0.83020213     0.05600
C3979       C  0.15707339  0.81310078  0.84249006     0.25200
C3980       C  0.15199327  0.79688601  0.82703300    -0.12500
C3981       C  0.15335023  0.79802983  0.79896045    -0.26400
C3982       C  0.16087175  0.81610899  0.78679530     0.36100
C3983       C  0.16693538  0.84777112  0.84588932     0.05600
F3984       F  0.15437323  0.81112172  0.86929338    -0.20200
H3985       H  0.14641967  0.78327759  0.83717821     0.15500
F3986       F  0.16321008  0.81818507  0.75997541    -0.23900
H3987       H  0.17141372  0.84608082  0.79257069     0.17300
C3988       C  0.17838945  0.85358810  0.86899546     0.25300
C3989       C  0.18087802  0.86953242  0.88345030    -0.12400
C3990       C  0.17239363  0.88008402  0.87459650    -0.26500
C3991       C  0.16101297  0.87424231  0.85146590     0.36200
C3992       C  0.15814506  0.85811292  0.83752346    -0.28100
F3993       F  0.18771844  0.84432988  0.87695433    -0.20200
H3994       H  0.18997809  0.87405361  0.90094160     0.15500
F3995       F  0.15261852  0.88414199  0.84231410    -0.23900
H3996       H  0.14907406  0.85371605  0.81999976     0.17300
C3997       C  0.23929919  0.45146807  0.19674691    -0.28000
C3998       C  0.24052797  0.43561339  0.18786737     0.05600
C3999       C  0.22394538  0.41748046  0.18806054     0.25200
C4000       C  0.20632734  0.41542301  0.19572788    -0.12500
C4001       C  0.20486766  0.43133431  0.20389092    -0.26400
C4002       C  0.22175345  0.44943346  0.20481469     0.36100
C4003       C  0.25899113  0.43823175  0.17765444     0.05600
F4004       F  0.22484742  0.40165497  0.18132396    -0.20200
H4005       H  0.19379773  0.40128463  0.19523950     0.15500
F4006       F  0.22145185  0.46525549  0.21342255    -0.23900
H4007       H  0.25193535  0.46555135  0.19700121     0.17300
C4008       C  0.26020791  0.43209243  0.15185567     0.25300
C4009       C  0.27788074  0.43600640  0.14150231    -0.12400
C4010       C  0.29472496  0.44569218  0.15678342    -0.26500
C4011       C  0.29330560  0.45078982  0.18323783     0.36200
C4012       C  0.27565788  0.44746626  0.19327661    -0.28100
F4013       F  0.24440926  0.42287967  0.13624527    -0.20200
H4014       H  0.27836370  0.43153587  0.12127284     0.15500
F4015       F  0.30895930  0.45939187  0.19920177    -0.23900
H4016       H  0.27496682  0.45206432  0.21334638     0.17300
C4017       C  0.08396449  0.49389641  0.18260920    -0.28000
C4018       C  0.09234901  0.50249149  0.15820679     0.05600
C4019       C  0.10261547  0.49548233  0.14389313     0.25200
C4020       C  0.10454913  0.48029061  0.15408729    -0.12500
C4021       C  0.09687021  0.47228206  0.17915152    -0.26400
C4022       C  0.08634558  0.47917652  0.19316966     0.36100
C4023       C  0.09097755  0.51930771  0.14883610     0.05600
F4024       F  0.11105970  0.50353578  0.12031533    -0.20200
H4025       H  0.11284148  0.47542974  0.14295912     0.15500
F4026       F  0.07866877  0.47201984  0.21748012    -0.23900
H4027       H  0.07612920  0.49912950  0.19407861     0.17300
C4028       C  0.07308723  0.51814098  0.14598459     0.25300
C4029       C  0.07191318  0.53438724  0.13937896    -0.12400
C4030       C  0.08851809  0.55225717  0.13525347    -0.26500
C4031       C  0.10646757  0.55331721  0.13764462     0.36200
C4032       C  0.10760669  0.53701552  0.14447500    -0.28100
F4033       F  0.05667397  0.50119141  0.14925555    -0.20200
H4034       H  0.05784965  0.53284603  0.13723338     0.15500
F4035       F  0.12295434  0.57006134  0.13358049    -0.23900
H4036       H  0.12154751  0.53829600  0.14684076     0.17300
C4037       C  0.15081328  0.34099448  0.30590539    -0.28000
C4038       C  0.14649582  0.33953331  0.33330705     0.05600
C4039       C  0.13887905  0.35038655  0.34396331     0.25200
C4040       C  0.13634264  0.36298018  0.32776802    -0.12500
C4041       C  0.14124828  0.36502396  0.30049985    -0.26400
C4042       C  0.14816766  0.35356641  0.28955474     0.36100
C4043       C  0.15055192  0.32720802  0.35086250     0.05600
F4044       F  0.13375160  0.34871543  0.37005122    -0.20200
H4045       H  0.13057814  0.37124417  0.33677662     0.15500
F4046       F  0.15304197  0.35496828  0.26339881    -0.23900
H4047       H  0.15678229  0.33279200  0.29729392     0.17300
C4048       C  0.14458711  0.30823165  0.34368300     0.25300
C4049       C  0.14961711  0.29717969  0.35943695    -0.12400
C4050       C  0.16050513  0.30470843  0.38281536    -0.26500
C4051       C  0.16572939  0.32340073  0.39070817     0.36200
C4052       C  0.16089537  0.33457910  0.37470024    -0.28100
F4053       F  0.13388465  0.30036319  0.32144922    -0.20200
H4054       H  0.14522410  0.28272209  0.35308095     0.15500
F4055       F  0.17638211  0.33122983  0.41297969    -0.23900
H4056       H  0.16575790  0.34923532  0.38051283     0.17300
C4057       C  0.12024334  0.22154665  0.99297798    -0.28000
C4058       C  0.13869693  0.23755009  0.99371689     0.05600
C4059       C  0.14133253  0.25544875  0.98599616     0.25200
C4060       C  0.12567741  0.25726037  0.97792289    -0.12500
C4061       C  0.10707598  0.24124517  0.97711809    -0.26400
C4062       C  0.10460255  0.22324649  0.98464948     0.36100
C4063       C  0.15494169  0.23546145  0.00335028     0.05600
F4064       F  0.15896898  0.27127031  0.98691829    -0.20200
H4065       H  0.12818280  0.27127773  0.97221787     0.15500
F4066       F  0.08712084  0.20720865  0.98416264    -0.23900
H4067       H  0.11796017  0.20761459  0.99877634     0.17300
C4068       C  0.15424952  0.22786286  0.02877898     0.25300
C4069       C  0.16950665  0.22590161  0.03797120    -0.12400
C4070       C  0.18573202  0.23121038  0.02195347    -0.26500
C4071       C  0.18629608  0.23851526  0.99623878     0.36200
C4072       C  0.17106966  0.24077770  0.98717116    -0.28100
F4073       F  0.13892536  0.22263480  0.04496884    -0.20200
H4074       H  0.16848632  0.21997154  0.05768440     0.15500
F4075       F  0.20162526  0.24376436  0.98008369    -0.23900
H4076       H  0.17175344  0.24649186  0.96739053     0.17300
C4077       C  0.92415187  0.17842298  0.98148859    -0.28000
C4078       C  0.92333338  0.17197632  0.00765861     0.05600
C4079       C  0.93970282  0.18110747  0.02381915     0.25200
C4080       C  0.95680200  0.19618934  0.01361646    -0.12500
C4081       C  0.95788526  0.20228637  0.98702588    -0.26400
C4082       C  0.94116064  0.19335308  0.97118627     0.36100
C4083       C  0.90531370  0.15564739  0.01773736     0.05600
F4084       F  0.93908636  0.17542183  0.04946082    -0.20200
H4085       H  0.96934862  0.20266383  0.02627809     0.15500
F4086       F  0.94120149  0.19878483  0.94553386    -0.23900
H4087       H  0.91162921  0.17157848  0.96878605     0.17300
C4088       C  0.88846674  0.15666585  0.01821776     0.25300
C4089       C  0.87127669  0.14095730  0.02660590    -0.12400
C4090       C  0.87037281  0.12369329  0.03429500    -0.26500
C4091       C  0.88739193  0.12274952  0.03374496     0.36200
C4092       C  0.90468280  0.13866657  0.02576543    -0.28100
F4093       F  0.88868581  0.17294543  0.01066811    -0.20200
H4094       H  0.85859737  0.14234681  0.02683835     0.15500
F4095       F  0.88736567  0.10641198  0.04032539    -0.23900
H4096       H  0.91754036  0.13758819  0.02518493     0.17300
C4097       C  0.10163740  0.36243681  0.09041352    -0.28000
C4098       C  0.10298577  0.34588831  0.09417910     0.05600
C4099       C  0.11298411  0.34480977  0.11640442     0.25200
C4100       C  0.12013255  0.35932713  0.13558941    -0.12500
C4101       C  0.11767992  0.37537200  0.13290194    -0.26400
C4102       C  0.10907841  0.37716425  0.10938098     0.36100
C4103       C  0.09337411  0.32952700  0.07546527     0.05600
F4104       F  0.11488477  0.32918966  0.12037567    -0.20200
H4105       H  0.12683401  0.35749969  0.15319062     0.15500
F4106       F  0.10730348  0.39282217  0.10499965    -0.23900
H4107       H  0.09447910  0.36377918  0.07295166     0.17300
C4108       C  0.07361727  0.32092181  0.07057791     0.25300
C4109       C  0.06470353  0.30576365  0.05242025    -0.12400
C4110       C  0.07536009  0.29908596  0.03845745    -0.26500
C4111       C  0.09509681  0.30744511  0.04398325     0.36200
C4112       C  0.10389050  0.32234451  0.06251036    -0.28100
F4113       F  0.06294924  0.32721307  0.08336928    -0.20200
H4114       H  0.04958320  0.29980392  0.04844691     0.15500
F4115       F  0.10606052  0.30158720  0.03103175    -0.23900
H4116       H  0.11910090  0.32870779  0.06614399     0.17300
C4117       C  0.14678234  0.33059863  0.86964601    -0.28000
C4118       C  0.14385541  0.33318338  0.84262362     0.05600
C4119       C  0.12537840  0.32272353  0.83188796     0.25200
C4120       C  0.11027521  0.30978288  0.84774713    -0.12500
C4121       C  0.11319738  0.30677132  0.87460482    -0.26400
C4122       C  0.13159868  0.31751836  0.88558231     0.36100
C4123       C  0.16006123  0.34677584  0.82575239     0.05600
F4124       F  0.12181970  0.32515379  0.80613544    -0.20200
H4125       H  0.09618816  0.30204094  0.83882148     0.15500
F4126       F  0.13506898  0.31494683  0.91130782    -0.23900
H4127       H  0.16095825  0.33843080  0.87826731     0.17300
C4128       C  0.17227787  0.36556054  0.83451111     0.25300
C4129       C  0.18766443  0.37823351  0.81877578    -0.12400
C4130       C  0.19126694  0.37251576  0.79395774    -0.26500
C4131       C  0.17898883  0.35373119  0.78503480     0.36200
C4132       C  0.16349407  0.34101017  0.80083272    -0.28100
F4133       F  0.16925213  0.37176047  0.85821108    -0.20200
H4134       H  0.19693421  0.39258102  0.82621349     0.15500
F4135       F  0.18249922  0.34736622  0.76180940    -0.23900
H4136       H  0.15443591  0.32647789  0.79391189     0.17300
C4137       C  0.09484111  0.45453900  0.38285242    -0.28000
C4138       C  0.10823991  0.45672275  0.40248745     0.05600
C4139       C  0.12536940  0.45766867  0.39471230     0.25200
C4140       C  0.12858250  0.45538427  0.36794569    -0.12500
C4141       C  0.11481150  0.45218201  0.34828018    -0.26400
C4142       C  0.09809861  0.45236258  0.35589154     0.36100
C4143       C  0.10460340  0.45842738  0.43102601     0.05600
F4144       F  0.13899384  0.46079509  0.41307999    -0.20200
H4145       H  0.14173648  0.45563943  0.36267298     0.15500
F4146       F  0.08450066  0.44944763  0.33760375    -0.23900
H4147       H  0.08164485  0.45405133  0.38853032     0.17300
C4148       C  0.10331838  0.47419863  0.43988925     0.25300
C4149       C  0.10032858  0.47608142  0.46682737    -0.12400
C4150       C  0.09824644  0.46214867  0.48563696    -0.26500
C4151       C  0.09985333  0.44644099  0.47682282     0.36200
C4152       C  0.10303916  0.44465555  0.44967131    -0.28100
F4153       F  0.10514778  0.48791715  0.42249839    -0.20200
H4154       H  0.09933925  0.48845386  0.47290850     0.15500
F4155       F  0.09769074  0.43254714  0.49411100    -0.23900
H4156       H  0.10402460  0.43238316  0.44307499     0.17300
C4157       C  0.08277215  0.60908766  0.67858689    -0.28000
C4158       C  0.09131927  0.60854101  0.65453730     0.05600
C4159       C  0.10297373  0.62577380  0.64081294     0.25200
C4160       C  0.10619138  0.64324588  0.65141168    -0.12500
C4161       C  0.09810657  0.64380678  0.67602787    -0.26400
C4162       C  0.08619644  0.62643047  0.68938219     0.36100
C4163       C  0.08854186  0.58992090  0.64498174     0.05600
F4164       F  0.11131310  0.62571920  0.61730855    -0.20200
H4165       H  0.11549105  0.65636706  0.64080304     0.15500
F4166       F  0.07797269  0.62610658  0.71315942    -0.23900
H4167       H  0.07386819  0.59602404  0.68957009     0.17300
C4168       C  0.10431062  0.58750604  0.63973354     0.25300
C4169       C  0.10155827  0.56949977  0.63282948    -0.12400
C4170       C  0.08304999  0.55336897  0.63176433    -0.26500
C4171       C  0.06727124  0.55582069  0.63747034     0.36200
C4172       C  0.07005225  0.57393574  0.64372076    -0.28100
F4173       F  0.12241719  0.60231387  0.64280781    -0.20200
H4174       H  0.11404368  0.56813729  0.62901872     0.15500
F4175       F  0.04914015  0.54075026  0.63746872    -0.23900
H4176       H  0.05771369  0.57543917  0.64812159     0.17300
C4177       C  0.18799792  0.45779141  0.69048025    -0.28000
C4178       C  0.17026668  0.44118390  0.68611840     0.05600
C4179       C  0.16862179  0.42324920  0.69039485     0.25200
C4180       C  0.18448650  0.42191083  0.69827605    -0.12500
C4181       C  0.20244992  0.43841317  0.70217703    -0.26400
C4182       C  0.20400919  0.45649437  0.69843305     0.36100
C4183       C  0.15373447  0.44242180  0.67568142     0.05600
F4184       F  0.15155747  0.40695997  0.68712329    -0.20200
H4185       H  0.18260599  0.40778029  0.70133564     0.15500
F4186       F  0.22098623  0.47287268  0.70175778    -0.23900
H4187       H  0.18953713  0.47175870  0.68707500     0.17300
C4188       C  0.14632152  0.45245564  0.68947358     0.25300
C4189       C  0.13095267  0.45378662  0.67882873    -0.12400
C4190       C  0.12276433  0.44518625  0.65421611    -0.26500
C4191       C  0.12995798  0.43469157  0.64084520     0.36200
C4192       C  0.14522021  0.43332755  0.65157398    -0.28100
F4193       F  0.15380319  0.46075279  0.71335482    -0.20200
H4194       H  0.12580790  0.46201206  0.68950867     0.15500
F4195       F  0.12238644  0.42583420  0.61728019    -0.23900
H4196       H  0.15067038  0.42541345  0.64075439     0.17300
C4197       C  0.96074300  0.50016872  0.50178891    -0.28000
C4198       C  0.97929377  0.50622105  0.49274191     0.05600
C4199       C  0.98481242  0.51450717  0.46725079     0.25200
C4200       C  0.97181700  0.51653576  0.45105259    -0.12500
C4201       C  0.95316113  0.51047916  0.46008569    -0.26400
C4202       C  0.94777584  0.50223698  0.48577291     0.36100
C4203       C  0.99222105  0.50235900  0.50908061     0.05600
F4204       F  0.00289228  0.52096957  0.45825914    -0.20200
H4205       H  0.97651021  0.52323323  0.43168882     0.15500
F4206       F  0.92994247  0.49603944  0.49558237    -0.23900
H4207       H  0.95614071  0.49344011  0.52115641     0.17300
C4208       C  0.99607731  0.50804250  0.53598990     0.25300
C4209       C  0.00818042  0.50384158  0.55096853    -0.12400
C4210       C  0.01621242  0.49356333  0.53948063    -0.26500
C4211       C  0.01146680  0.48710241  0.51291748     0.36200
C4212       C  0.99987005  0.49174368  0.49788694    -0.28100
F4213       F  0.98838546  0.51785908  0.54764241    -0.20200
H4214       H  0.01144575  0.50882253  0.57139273     0.15500
F4215       F  0.01759362  0.47583963  0.50151807    -0.23900
H4216       H  0.99644074  0.48659796  0.47754234     0.17300
C4217       C  0.90533005  0.48761327  0.84880179    -0.28000
C4218       C  0.88715674  0.48594713  0.84837440     0.05600
C4219       C  0.87128859  0.46856753  0.85656114     0.25200
C4220       C  0.87366734  0.45327806  0.86504570    -0.12500
C4221       C  0.89191120  0.45490302  0.86546017    -0.26400
C4222       C  0.90773185  0.47234125  0.85701450     0.36100
C4223       C  0.88484182  0.50196008  0.83772977     0.05600
F4224       F  0.85338284  0.46610677  0.85540622    -0.20200
H4225       H  0.86112998  0.44007768  0.87106107     0.15500
F4226       F  0.92557968  0.47464845  0.85611749    -0.23900
H4227       H  0.91775476  0.50080011  0.84244743     0.17300
C4228       C  0.87524173  0.50958842  0.85225326     0.25300
C4229       C  0.87296262  0.52439768  0.84150498    -0.12400
C4230       C  0.87999708  0.53181369  0.81594153    -0.26500
C4231       C  0.88995650  0.52439250  0.80167898     0.36200
C4232       C  0.89234861  0.50971771  0.81254779    -0.28100
F4233       F  0.86816751  0.50283850  0.87692428    -0.20200
H4234       H  0.86527374  0.52976651  0.85302807     0.15500
F4235       F  0.89748783  0.53130142  0.77723056    -0.23900
H4236       H  0.89984037  0.50413563  0.80100324     0.17300
C4237       C  0.78972848  0.25461462  0.81457076    -0.28000
C4238       C  0.80703726  0.25534356  0.82102708     0.05600
C4239       C  0.80836224  0.23874636  0.81773094     0.25200
C4240       C  0.79252752  0.22169182  0.80886265    -0.12500
C4241       C  0.77485536  0.22063735  0.80315977    -0.26400
C4242       C  0.77381894  0.23753645  0.80572512     0.36100
C4243       C  0.82347509  0.27327224  0.83175160     0.05600
F4244       F  0.82506989  0.23908613  0.82282605    -0.20200
H4245       H  0.79414611  0.20921153  0.80667908     0.15500
F4246       F  0.75742129  0.23762227  0.80003969    -0.23900
H4247       H  0.78841395  0.26726476  0.81689834     0.17300
C4248       C  0.83142970  0.29046844  0.81721970     0.25300
C4249       C  0.84668257  0.30730542  0.82772155    -0.12400
C4250       C  0.85411305  0.30750059  0.85318912    -0.26500
C4251       C  0.84620142  0.29017410  0.86765798     0.36200
C4252       C  0.83113156  0.27329889  0.85693848    -0.28100
F4253       F  0.82444116  0.29099127  0.79281165    -0.20200
H4254       H  0.85227990  0.32036846  0.81619453     0.15500
F4255       F  0.85299934  0.28946206  0.89216382    -0.23900
H4256       H  0.82517513  0.26024347  0.86855307     0.17300
C4257       C  0.91749729  0.28841818  0.91234274    -0.28000
C4258       C  0.93576847  0.29300152  0.92143783     0.05600
C4259       C  0.94650609  0.30982405  0.93625430     0.25200
C4260       C  0.93977515  0.32258998  0.94001225    -0.12500
C4261       C  0.92202540  0.31873192  0.92953451    -0.26400
C4262       C  0.91052634  0.30110258  0.91661418     0.36100
C4263       C  0.94484258  0.28171721  0.91325621     0.05600
F4264       F  0.96394531  0.31431032  0.94608047    -0.20200
H4265       H  0.94889078  0.33600660  0.95012552     0.15500
F4266       F  0.89333369  0.29686950  0.90619808    -0.23900
H4267       H  0.90905127  0.27548987  0.90087886     0.17300
C4268       C  0.94174933  0.26541058  0.92749252     0.25300
C4269       C  0.95380737  0.25767385  0.92344255    -0.12400
C4270       C  0.96930676  0.26640224  0.90555399    -0.26500
C4271       C  0.97142988  0.28192409  0.89006267     0.36200
C4272       C  0.95917005  0.28930619  0.89371158    -0.28100
F4273       F  0.92812818  0.25799958  0.94676179    -0.20200
H4274       H  0.95209416  0.24598726  0.93599990     0.15500
F4275       F  0.98637474  0.29100306  0.87295971    -0.23900
H4276       H  0.96177368  0.30192256  0.88263692     0.17300
C4277       C  0.96497749  0.42120972  0.75915788    -0.28000
C4278       C  0.97706267  0.44117949  0.75819906     0.05600
C4279       C  0.97342260  0.45261297  0.77575694     0.25200
C4280       C  0.95907973  0.44411426  0.79518771    -0.12500
C4281       C  0.94796776  0.42404841  0.79754006    -0.26400
C4282       C  0.95061651  0.41269049  0.77852789     0.36100
C4283       C  0.99401510  0.44974235  0.74004936     0.05600
F4284       F  0.98453258  0.47195955  0.77538305    -0.20200
H4285       H  0.95727080  0.45331324  0.80920731     0.15500
F4286       F  0.94017633  0.39330304  0.77952202    -0.23900
H4287       H  0.96705396  0.41208116  0.74533004     0.17300
C4288       C  0.00618723  0.44191543  0.73856323     0.25300
C4289       C  0.02160983  0.44935570  0.72078562    -0.12400
C4290       C  0.02524092  0.46466671  0.70379243    -0.26500
C4291       C  0.01368107  0.47318974  0.70627565     0.36200
C4292       C  0.99824552  0.46574481  0.72415626    -0.28100
F4293       F  0.00307981  0.42686656  0.75414143    -0.20200
H4294       H  0.03016053  0.44244930  0.71947212     0.15500
F4295       F  0.01689297  0.48837273  0.69090396    -0.23900
H4296       H  0.98920908  0.47213443  0.72490658     0.17300
C4297       C  0.98812835  0.49552449  0.96785011    -0.28000
C4298       C  0.99132183  0.49213903  0.99438861     0.05600
C4299       C  0.98117920  0.47356245  0.00469177     0.25200
C4300       C  0.96750597  0.45878947  0.98916672    -0.12500
C4301       C  0.96356540  0.46215667  0.96298813    -0.26400
C4302       C  0.97435334  0.48061451  0.95214005     0.36100
C4303       C  0.00440343  0.50810031  0.01181274     0.05600
F4304       F  0.98447338  0.46970215  0.02986273    -0.20200
H4305       H  0.95986538  0.44461510  0.99785635     0.15500
F4306       F  0.97110221  0.48440283  0.92691241    -0.23900
H4307       H  0.99588357  0.50983501  0.95961616     0.17300
C4308       C  0.02359207  0.52004669  0.00466273     0.25300
C4309       C  0.03537936  0.53589153  0.02037506    -0.12400
C4310       C  0.02819967  0.54017051  0.04334542    -0.26500
C4311       C  0.00923410  0.52764434  0.05124900     0.36200
C4312       C  0.99745982  0.51172536  0.03553460    -0.28100
F4313       F  0.03085369  0.51652989  0.98233021    -0.20200
H4314       H  0.05003194  0.54520077  0.01410372     0.15500
F4315       F  0.00168385  0.53147162  0.07301252    -0.23900
H4316       H  0.98265560  0.50262150  0.04130319     0.17300
C4317       C  0.97102355  0.19811159  0.72930349    -0.28000
C4318       C  0.98745188  0.21456556  0.73798116     0.05600
C4319       C  0.99927489  0.22844266  0.71923327     0.25200
C4320       C  0.99387646  0.22642871  0.69232947    -0.12500
C4321       C  0.97675036  0.21045722  0.68387474    -0.26400
C4322       C  0.96575018  0.19594846  0.70250088     0.36100
C4323       C  0.99233993  0.21686879  0.76656709     0.05600
F4324       F  0.01561988  0.24423935  0.72714125    -0.20200
H4325       H  0.00260033  0.23772779  0.67840107     0.15500
F4326       F  0.94966936  0.17976212  0.69487899    -0.23900
H4327       H  0.96217989  0.18699502  0.74340534     0.17300
C4328       C  0.98074017  0.21913228  0.78553182     0.25300
C4329       C  0.98594831  0.22174678  0.81252592    -0.12400
C4330       C  0.00263150  0.22189226  0.82091000    -0.26500
C4331       C  0.01364035  0.21866417  0.80185600     0.36200
C4332       C  0.00858751  0.21638264  0.77498631    -0.28100
F4333       F  0.96476883  0.21945095  0.77782267    -0.20200
H4334       H  0.97734676  0.22435581  0.82666761     0.15500
F4335       F  0.02943747  0.21784362  0.80909185    -0.23900
H4336       H  0.01737656  0.21419864  0.76064830     0.17300
C4337       C  0.83662221  0.10519151  0.52064977    -0.28000
C4338       C  0.83871344  0.08894696  0.51883327     0.05600
C4339       C  0.85649915  0.09070559  0.52520916     0.25200
C4340       C  0.87170458  0.10825092  0.53362270    -0.12500
C4341       C  0.86970906  0.12459640  0.53554407    -0.26400
C4342       C  0.85190998  0.12285248  0.52879111     0.36100
C4343       C  0.82264421  0.07045137  0.50915195     0.05600
F4344       F  0.85942973  0.07561568  0.52241519    -0.20200
H4345       H  0.88519696  0.10903973  0.53824575     0.15500
F4346       F  0.84921560  0.13816737  0.52975420    -0.23900
H4347       H  0.82308469  0.10419796  0.51567991     0.17300
C4348       C  0.81687587  0.05330702  0.52319154     0.25300
C4349       C  0.80280489  0.03576693  0.51266015    -0.12400
C4350       C  0.79404589  0.03502312  0.48810281    -0.26500
C4351       C  0.79909648  0.05235011  0.47485465     0.36200
C4352       C  0.81327460  0.06981141  0.48526479    -0.28100
F4353       F  0.82474756  0.05356911  0.54722702    -0.20200
H4354       H  0.79904338  0.02272905  0.52347253     0.15500
F4355       F  0.79026283  0.05246130  0.45185304    -0.23900
H4356       H  0.81724448  0.08284856  0.47430863     0.17300
C4357       C  0.03914250  0.22639314  0.48205265    -0.28000
C4358       C  0.05542213  0.23448675  0.49857211     0.05600
C4359       C  0.05363428  0.23955539  0.52483307     0.25200
C4360       C  0.03596129  0.23624855  0.53436728    -0.12500
C4361       C  0.01956530  0.22800522  0.51800472    -0.26400
C4362       C  0.02141321  0.22324206  0.49153659     0.36100
C4363       C  0.07416870  0.23753648  0.48854784     0.05600
F4364       F  0.06886749  0.24726597  0.54163595    -0.20200
H4365       H  0.03516504  0.24015442  0.55480948     0.15500
F4366       F  0.00609815  0.21521956  0.47491989    -0.23900
H4367       H  0.04018148  0.22259648  0.46164583     0.17300
C4368       C  0.07559491  0.22280788  0.47558661     0.25300
C4369       C  0.09340508  0.22567838  0.46709793    -0.12400
C4370       C  0.11029303  0.24322169  0.47147131    -0.26500
C4371       C  0.10881402  0.25790305  0.48480069     0.36200
C4372       C  0.09095815  0.25511154  0.49278437    -0.28100
F4373       F  0.05984931  0.20538964  0.47184175    -0.20200
H4374       H  0.09394683  0.21399638  0.45727981     0.15500
F4375       F  0.12457779  0.27487171  0.49079464    -0.23900
H4376       H  0.09028468  0.26674119  0.50256628     0.17300
C4377       C  0.85080902  0.19310552  0.66940658    -0.28000
C4378       C  0.83255811  0.18304694  0.65802527     0.05600
C4379       C  0.83070213  0.17649726  0.63154544     0.25200
C4380       C  0.84685637  0.17940621  0.61718502    -0.12500
C4381       C  0.86507304  0.18876580  0.62903975    -0.26400
C4382       C  0.86687049  0.19587135  0.65528463     0.36100
C4383       C  0.81561882  0.17911013  0.67425374     0.05600
F4384       F  0.81321221  0.16660718  0.61994351    -0.20200
H4385       H  0.84502205  0.17380395  0.59709938     0.15500
F4386       F  0.88415197  0.20552306  0.66752212    -0.23900
H4387       H  0.85263213  0.19872992  0.68948814     0.17300
C4388       C  0.81322162  0.17143604  0.70013079     0.25300
C4389       C  0.79717886  0.16763900  0.71528195    -0.12400
C4390       C  0.78312336  0.17123955  0.70489966    -0.26500
C4391       C  0.78570910  0.17924408  0.67912778     0.36200
C4392       C  0.80182019  0.18313244  0.66406919    -0.28100
F4393       F  0.82603459  0.16692119  0.71042680    -0.20200
H4394       H  0.79546228  0.16126153  0.73483471     0.15500
F4395       F  0.77272504  0.18336654  0.66838701    -0.23900
H4396       H  0.80356205  0.18938118  0.64441929     0.17300
C4397       C  0.02652057  0.31922496  0.61018742    -0.28000
C4398       C  0.03626152  0.32727074  0.58624249     0.05600
C4399       C  0.03530408  0.31509291  0.56547004     0.25200
C4400       C  0.02393295  0.29521538  0.56819411    -0.12500
C4401       C  0.01296249  0.28729397  0.59130168    -0.26400
C4402       C  0.01475488  0.29938925  0.61260532     0.36100
C4403       C  0.04465887  0.34809052  0.58175032     0.05600
F4404       F  0.04417642  0.32247181  0.54185838    -0.20200
H4405       H  0.02230790  0.28612884  0.55131158     0.15500
F4406       F  0.00391788  0.29209978  0.63486610    -0.23900
H4407       H  0.02683879  0.32839121  0.62622118     0.17300
C4408       C  0.03591458  0.35460472  0.56356362     0.25300
C4409       C  0.04185896  0.37406720  0.56185464    -0.12400
C4410       C  0.05666501  0.38741057  0.57813018    -0.26500
C4411       C  0.06599088  0.38105080  0.59558827     0.36200
C4412       C  0.05986038  0.36145889  0.59754774    -0.28100
F4413       F  0.02060218  0.34196690  0.54898206    -0.20200
H4414       H  0.03430500  0.37866472  0.54861917     0.15500
F4415       F  0.07995463  0.39355024  0.61216595    -0.23900
H4416       H  0.06652191  0.35663417  0.61199489     0.17300
C4417       C  0.84789696  0.31882257  0.11023320    -0.28000
C4418       C  0.86371393  0.33593265  0.10171031     0.05600
C4419       C  0.87692820  0.34830469  0.12081945     0.25200
C4420       C  0.87491755  0.34296982  0.14776823    -0.12500
C4421       C  0.85955299  0.32536556  0.15608501    -0.26400
C4422       C  0.84557914  0.31375311  0.13716026     0.36100
C4423       C  0.86627114  0.34088139  0.07294998     0.05600
F4424       F  0.89229162  0.36511111  0.11322137    -0.20200
H4425       H  0.88584854  0.35216497  0.16184692     0.15500
F4426       F  0.82970077  0.29732828  0.14466456    -0.23900
H4427       H  0.83726671  0.30938930  0.09597979     0.17300
C4428       C  0.86697983  0.32846155  0.05379065     0.25300
C4429       C  0.87087410  0.33407378  0.02697394    -0.12400
C4430       C  0.87431494  0.35221994  0.01891876    -0.26500
C4431       C  0.87237029  0.36406336  0.03800491     0.36200
C4432       C  0.86847822  0.35842427  0.06463244    -0.28100
F4433       F  0.86508378  0.31142511  0.06127336    -0.20200
H4434       H  0.87215169  0.32461784  0.01282867     0.15500
F4435       F  0.87460553  0.38135732  0.03118188    -0.23900
H4436       H  0.86748398  0.36795818  0.07895233     0.17300
C4437       C  0.74130986  0.19928028  0.30349806    -0.28000
C4438       C  0.74109873  0.18496379  0.31966295     0.05600
C4439       C  0.75855877  0.18577285  0.32549141     0.25200
C4440       C  0.77587414  0.20106058  0.31627356    -0.12500
C4441       C  0.77621024  0.21593049  0.30111829    -0.26400
C4442       C  0.75858111  0.21459062  0.29433209     0.36100
C4443       C  0.72267108  0.16955748  0.33070482     0.05600
F4444       F  0.75888090  0.17171023  0.33997274    -0.20200
H4445       H  0.78908516  0.20145188  0.32154983     0.15500
F4446       F  0.75791320  0.22807083  0.27889791    -0.23900
H4447       H  0.72804921  0.19888309  0.29849449     0.17300
C4448       C  0.72068740  0.16516947  0.35808968     0.25300
C4449       C  0.70314428  0.15115140  0.36835936    -0.12400
C4450       C  0.68701034  0.14133709  0.35175703    -0.26500
C4451       C  0.68902607  0.14565504  0.32430285     0.36200
C4452       C  0.70666101  0.15966005  0.31400872    -0.28100
F4453       F  0.73544542  0.17502534  0.37522716    -0.20200
H4454       H  0.70216359  0.14830052  0.38958836     0.15500
F4455       F  0.67394184  0.13670214  0.30741306    -0.23900
H4456       H  0.70781345  0.16283161  0.29287349     0.17300
C4457       C  0.89381662  0.40130959  0.31833926    -0.28000
C4458       C  0.88690360  0.40189055  0.34379860     0.05600
C4459       C  0.87765466  0.38488033  0.35882752     0.25200
C4460       C  0.87548456  0.36771626  0.34843843    -0.12500
C4461       C  0.88219246  0.36710717  0.32273249    -0.26400
C4462       C  0.89150817  0.38424408  0.30784514     0.36100
C4463       C  0.88901405  0.42026629  0.35372810     0.05600
F4464       F  0.87080066  0.38486013  0.38356370    -0.20200
H4465       H  0.86805554  0.35477954  0.36022498     0.15500
F4466       F  0.89831866  0.38461286  0.28294624    -0.23900
H4467       H  0.90069783  0.41411325  0.30618443     0.17300
C4468       C  0.90674292  0.43729895  0.35209078     0.25300
C4469       C  0.90828438  0.45490788  0.35851868    -0.12400
C4470       C  0.89224998  0.45604207  0.36704499    -0.26500
C4471       C  0.87452233  0.43881524  0.36932787     0.36200
C4472       C  0.87303237  0.42119932  0.36281154    -0.28100
F4473       F  0.92268038  0.43688477  0.34444615    -0.20200
H4474       H  0.92214009  0.46771372  0.35669245     0.15500
F4475       F  0.85847158  0.43886326  0.37738313    -0.23900
H4476       H  0.85918500  0.40830993  0.36401475     0.17300
C4477       C  0.90648777  0.23677256  0.43325187    -0.28000
C4478       C  0.88647949  0.22760664  0.43082045     0.05600
C4479       C  0.87522100  0.21095408  0.44579920     0.25200
C4480       C  0.88385610  0.20394350  0.46324153    -0.12500
C4481       C  0.90391179  0.21333405  0.46618241    -0.26400
C4482       C  0.91514402  0.22986168  0.45082694     0.36100
C4483       C  0.87756874  0.23546639  0.41250511     0.05600
F4484       F  0.85583511  0.20194299  0.44447043    -0.20200
H4485       H  0.87474886  0.19142823  0.47512198     0.15500
F4486       F  0.93440361  0.24010373  0.45397411    -0.23900
H4487       H  0.91547115  0.24953852  0.42174770     0.17300
C4488       C  0.88309897  0.25500780  0.41296178     0.25300
C4489       C  0.87622705  0.26265739  0.39362691    -0.12400
C4490       C  0.86357741  0.25093893  0.37356386    -0.26500
C4491       C  0.85690176  0.23108697  0.37458268     0.36200
C4492       C  0.86397551  0.22354728  0.39365948    -0.28100
F4493       F  0.89536639  0.26674116  0.43191942    -0.20200
H4494       H  0.88144561  0.27790567  0.39375391     0.15500
F4495       F  0.84387822  0.21891162  0.35671692    -0.23900
H4496       H  0.85930301  0.20841458  0.39306633     0.17300
C4497       C  0.00817610  0.38903066  0.27543503    -0.28000
C4498       C  0.00089685  0.39493915  0.25433374     0.05600
C4499       C  0.01373171  0.40902503  0.23661524     0.25200
C4500       C  0.03350906  0.41628480  0.23917543    -0.12500
C4501       C  0.04063200  0.40927573  0.25911285    -0.26400
C4502       C  0.02786942  0.39608725  0.27779319     0.36100
C4503       C  0.98002300  0.38436926  0.24901565     0.05600
F4504       F  0.00703943  0.41488271  0.21596367    -0.20200
H4505       H  0.04310032  0.42624362  0.22437620     0.15500
F4506       F  0.03444933  0.38935085  0.29753702    -0.23900
H4507       H  0.99850013  0.37810214  0.28917276     0.17300
C4508       C  0.97273826  0.37056609  0.22866341     0.25300
C4509       C  0.95302137  0.35801405  0.22650723    -0.12400
C4510       C  0.94013909  0.35919925  0.24423150    -0.26500
C4511       C  0.94735872  0.37378490  0.26361459     0.36200
C4512       C  0.96719100  0.38616018  0.26609797    -0.28100
F4513       F  0.98481176  0.36830002  0.21214351    -0.20200
H4514       H  0.94784169  0.34662508  0.21186252     0.15500
F4515       F  0.93543754  0.37487298  0.28174508    -0.23900
H4516       H  0.97259517  0.39657097  0.28210175     0.17300
C4517       C  0.84064612  0.20002883  0.16422094    -0.28000
C4518       C  0.83404337  0.18223396  0.17639759     0.05600
C4519       C  0.83153279  0.18065463  0.20426282     0.25200
C4520       C  0.83424494  0.19646005  0.21932242    -0.12500
C4521       C  0.84001719  0.21412755  0.20684836    -0.26400
C4522       C  0.84394074  0.21588403  0.17922421     0.36100
C4523       C  0.82967381  0.16549410  0.15962831     0.05600
F4524       F  0.82595782  0.16374662  0.21676451    -0.20200
H4525       H  0.83150957  0.19478465  0.24058483     0.15500
F4526       F  0.85125101  0.23299841  0.16658692    -0.23900
H4527       H  0.84338677  0.20167546  0.14294827     0.17300
C4528       C  0.81736768  0.16085965  0.13752147     0.25300
C4529       C  0.81333198  0.14508699  0.12162217    -0.12400
C4530       C  0.82108855  0.13343546  0.12789645    -0.26500
C4531       C  0.83340082  0.13805582  0.15004879     0.36200
C4532       C  0.83783668  0.15413060  0.16550750    -0.28100
F4533       F  0.80857464  0.17108213  0.13199903    -0.20200
H4534       H  0.80340011  0.14144017  0.10516412     0.15500
F4535       F  0.84099320  0.12694287  0.15694284    -0.23900
H4536       H  0.84752351  0.15762484  0.18223587     0.17300
loop_ 
_geom_bond_atom_site_label_1 
_geom_bond_atom_site_label_2 
_geom_bond_distance 
_geom_bond_site_symmetry_2 
_ccdc_geom_bond_type 
Zr1           O2   2.439       .  S
Zr1           O3   2.445       .  S
Zr1           O4   2.441       .  S
Zr1           O7   2.451       .  S
Zr1           O9   2.390       .  S
Zr1          O10   2.381       .  S
Zr1          O11   2.413       .  S
Zr1          O12   2.396       .  S
O2           H58   0.990       .  S
O2           H66   0.990       .  S
O3           C23   1.285       .  A
O4           C25   1.286       .  A
O5          Zr15   2.396       .  S
O5           C24   1.279       .  A
O6          Zr14   2.453       .  S
O6           C25   1.288       .  A
O7           C24   1.287       .  A
O8          Zr16   2.435       .  S
O8           C23   1.283       .  A
O9          Zr14   2.405       .  S
O9          Zr16   2.383       .  S
O10         Zr15   2.383       .  S
O10         Zr16   2.369       .  S
O10          H45   0.966       .  S
O11         Zr14   2.411       .  S
O11         Zr31   2.385       .  S
O11          H48   0.965       .  S
O12         Zr15   2.386       .  S
O12         Zr31   2.384       .  S
Zr13         O38   2.442       .  S
Zr13         O32   2.473       .  S
Zr13         O40   2.461       .  S
Zr13         O28   2.419       .  S
Zr13         O19   2.414       .  S
Zr13         O20   2.425       .  S
Zr13         O21   2.381       .  S
Zr13         O22   2.377       .  S
Zr14         O33   2.436       .  S
Zr14         O26   2.436       .  S
Zr14         O27   2.461       .  S
Zr14         O20   2.401       .  S
Zr14         O21   2.398       .  S
Zr15         O17   2.436       .  S
Zr15         O39   2.438       .  S
Zr15         O41   2.398       .  S
Zr15         O19   2.382       .  S
Zr15         O22   2.393       .  S
Zr16         O42   2.437       .  S
Zr16         O43   2.438       .  S
Zr16         O18   2.438       .  S
Zr16         O19   2.407       .  S
Zr16         O20   2.409       .  S
O17          H54   0.990       .  S
O18          H49   0.991       .  S
O18          H63   0.990       .  S
O20          H46   0.965       .  S
O21         Zr31   2.381       .  S
O22         Zr31   2.379       .  S
O22          H47   0.966       .  S
C23        C4441   1.494       .  S
C24        C4521   1.480       .  S
C25        C4490   1.493       .  S
O26          H62   0.990       .  S
O27          C29   1.290       .  A
O28          C29   1.281       .  A
C29        C4461   1.491       .  S
O30         Zr31   2.439       .  S
O30          H59   0.991       .  S
Zr31         O34   2.438       .  S
Zr31         O35   2.441       .  S
Zr31         O36   2.407       .  S
O32          C37   1.291       .  A
O33          H50   0.990       .  S
O33          H65   0.990       .  S
O34          H51   0.990       .  S
O35          H55   0.990       .  S
O35          H64   0.990       .  S
O36          C37   1.279       .  A
C37        C4510   1.483       .  S
O38          H57   0.991       .  S
O38          H61   0.991       .  S
O39          H53   0.990       .  S
O39          H60   0.990       .  S
O40          C44   1.290       .  A
O41          C44   1.278       .  A
O42          H52   0.990       .  S
O43          H56   0.990       .  S
C44        C4421   1.483       .  S
Zr67         O68   2.449       .  S
Zr67         O69   2.440       .  S
Zr67         O70   2.431       .  S
Zr67         O73   2.457       .  S
Zr67         O75   2.393       .  S
Zr67         O76   2.382       .  S
Zr67         O77   2.418       .  S
Zr67         O78   2.402       .  S
O68         H124   0.991       .  S
O68         H132   0.991       .  S
O69          C89   1.284       .  A
O70          C91   1.282       .  A
O71         Zr81   2.402       .  S
O71          C90   1.280       .  A
O72         Zr80   2.465       .  S
O72          C91   1.290       .  A
O73          C90   1.289       .  A
O74         Zr82   2.421       .  S
O74          C89   1.282       .  A
O75         Zr80   2.398       .  S
O75         Zr82   2.383       .  S
O76         Zr81   2.388       .  S
O76         Zr82   2.377       .  S
O76         H111   0.966       .  S
O77         Zr80   2.412       .  S
O77         Zr97   2.378       .  S
O77         H114   0.965       .  S
O78         Zr81   2.382       .  S
O78         Zr97   2.392       .  S
Zr79        O104   2.439       .  S
Zr79         O98   2.451       .  S
Zr79        O106   2.459       .  S
Zr79         O94   2.418       .  S
Zr79         O85   2.402       .  S
Zr79         O86   2.421       .  S
Zr79         O87   2.383       .  S
Zr79         O88   2.375       .  S
Zr80         O99   2.437       .  S
Zr80         O92   2.435       .  S
Zr80         O93   2.464       .  S
Zr80         O86   2.403       .  S
Zr80         O87   2.401       .  S
Zr81         O83   2.434       .  S
Zr81        O105   2.438       .  S
Zr81        O107   2.399       .  S
Zr81         O85   2.383       .  S
Zr81         O88   2.387       .  S
Zr82        O108   2.435       .  S
Zr82        O109   2.435       .  S
Zr82         O84   2.439       .  S
Zr82         O85   2.399       .  S
Zr82         O86   2.392       .  S
O83         H120   0.990       .  S
O84         H115   0.991       .  S
O84         H129   0.990       .  S
O86         H112   0.966       .  S
O87         Zr97   2.375       .  S
O88         Zr97   2.370       .  S
O88         H113   0.966       .  S
C89        C4341   1.491       .  S
C90        C4381   1.485       .  S
C91        C4481   1.490       .  S
O92         H128   0.990       .  S
O93          C95   1.291   1_655  A
O94          C95   1.283   1_655  A
C95        C4361   1.492       .  S
O96         Zr97   2.437       .  S
O96         H125   0.990       .  S
Zr97        O100   2.434       .  S
Zr97        O101   2.441       .  S
Zr97        O102   2.410       .  S
O98         C103   1.285       .  A
O99         H116   0.990       .  S
O99         H131   0.990       .  S
O100        H117   0.990       .  S
O101        H121   0.990       .  S
O101        H130   0.990       .  S
O102        C103   1.279       .  A
C103       C4401   1.470   1_655  S
O104        H123   0.990       .  S
O104        H127   0.990   1_655  S
O105        H119   0.990       .  S
O105        H126   0.990       .  S
O106        C110   1.289       .  A
O107        C110   1.279       .  A
O108        H118   0.990       .  S
O109        H122   0.990       .  S
C110       C4321   1.479       .  S
Zr133       O134   2.441       .  S
Zr133       O135   2.445       .  S
Zr133       O136   2.440       .  S
Zr133       O139   2.456       .  S
Zr133       O141   2.380       .  S
Zr133       O142   2.382       .  S
Zr133       O143   2.418       .  S
Zr133       O144   2.396       .  S
O134        H190   0.990       .  S
O134        H198   0.990       .  S
O135        C155   1.285       .  A
O136        C157   1.285       .  A
O137       Zr147   2.390       .  S
O137        C156   1.278       .  A
O138       Zr146   2.448       .  S
O138        C157   1.288       .  A
O139        C156   1.288       .  A
O140       Zr148   2.429       .  S
O140        C155   1.282       .  A
O141       Zr146   2.402       .  S
O141       Zr148   2.378       .  S
O142       Zr147   2.389       .  S
O142       Zr148   2.379       .  S
O142        H177   0.966       .  S
O143       Zr146   2.408       .  S
O143       Zr163   2.396       .  S
O143        H180   0.966       .  S
O144       Zr147   2.381       .  S
O144       Zr163   2.385       .  S
Zr145       O170   2.447       .  S
Zr145       O164   2.461       .  S
Zr145       O172   2.464       .  S
Zr145       O160   2.430       .  S
Zr145       O151   2.413       .  S
Zr145       O152   2.422       .  S
Zr145       O153   2.385       .  S
Zr145       O154   2.375       .  S
Zr146       O165   2.435       .  S
Zr146       O158   2.433       .  S
Zr146       O159   2.457       .  S
Zr146       O152   2.408       .  S
Zr146       O153   2.391       .  S
Zr147       O149   2.437       .  S
Zr147       O171   2.435       .  S
Zr147       O173   2.402       .  S
Zr147       O151   2.381       .  S
Zr147       O154   2.385       .  S
Zr148       O174   2.438       .  S
Zr148       O175   2.436       .  S
Zr148       O150   2.438       .  S
Zr148       O151   2.410       .  S
Zr148       O152   2.393       .  S
O149        H186   0.990   1_556  S
O150        H181   0.990       .  S
O150        H195   0.990       .  S
O152        H178   0.965       .  S
O153       Zr163   2.373       .  S
O154       Zr163   2.375       .  S
O154        H179   0.966       .  S
C155       C4221   1.498       .  S
C156       C4301   1.478       .  S
C157       C4281   1.493       .  S
O158        H194   0.990       .  S
O159        C161   1.291       .  A
O160        C161   1.284       .  A
C161       C4250   1.492       .  S
O162       Zr163   2.439       .  S
O162        H191   0.990       .  S
Zr163       O166   2.441       .  S
Zr163       O167   2.443       .  S
Zr163       O168   2.408       .  S
O164        C169   1.289       .  A
O165        H182   0.990       .  S
O165        H197   0.990       .  S
O166        H183   0.990       .  S
O167        H187   0.990       .  S
O167        H196   0.990       .  S
O168        C169   1.280       .  A
C169       C4261   1.484       .  S
O170        H189   0.991       .  S
O170        H193   0.989       .  S
O171        H185   0.990       .  S
O171        H192   0.990       .  S
O172        C176   1.290       .  A
O173        C176   1.279       .  A
O174        H184   0.990       .  S
O175        H188   0.990       .  S
C176       C4430   1.488   1_556  S
Zr199       O200   2.441       .  S
Zr199       O201   2.438       .  S
Zr199       O202   2.437       .  S
Zr199       O205   2.446       .  S
Zr199       O207   2.384       .  S
Zr199       O208   2.380       .  S
Zr199       O209   2.416       .  S
Zr199       O210   2.399       .  S
O200        H256   0.990       .  S
O200        H264   0.990       .  S
O201        C221   1.284       .  A
O202        C223   1.284       .  A
O203       Zr213   2.391       .  S
O203        C222   1.277       .  A
O204       Zr212   2.449       .  S
O204        C223   1.289       .  A
O205        C222   1.286       .  A
O206       Zr214   2.420       .  S
O206        C221   1.281       .  A
O207       Zr212   2.402       .  S
O207       Zr214   2.384       .  S
O208       Zr213   2.379       .  S
O208       Zr214   2.373       .  S
O208        H243   0.966       .  S
O209       Zr212   2.410       .  S
O209       Zr229   2.387       .  S
O209        H246   0.966       .  S
O210       Zr213   2.383       .  S
O210       Zr229   2.392       .  S
Zr211       O236   2.443       .  S
Zr211       O230   2.442       .  S
Zr211       O238   2.471       .  S
Zr211       O226   2.427       .  S
Zr211       O217   2.405       .  S
Zr211       O218   2.418       .  S
Zr211       O219   2.385       .  S
Zr211       O220   2.377       .  S
Zr212       O231   2.438       .  S
Zr212       O224   2.433       .  S
Zr212       O225   2.458       .  S
Zr212       O218   2.405       .  S
Zr212       O219   2.390       .  S
Zr213       O215   2.433       .  S
Zr213       O237   2.440       .  S
Zr213       O239   2.392       .  S
Zr213       O217   2.380       .  S
Zr213       O220   2.386       .  S
Zr214       O240   2.436       .  S
Zr214       O241   2.433       .  S
Zr214       O216   2.435       .  S
Zr214       O217   2.401       .  S
Zr214       O218   2.391       .  S
O215        H252   0.990       .  S
O216        H247   0.990       .  S
O216        H261   0.990       .  S
O218        H244   0.965       .  S
O219       Zr229   2.373       .  S
O220       Zr229   2.368       .  S
O220        H245   0.966       .  S
C221       C4170   1.489       .  S
C222       C4210   1.478       .  S
C223       C4290   1.490       .  S
O224        H260   0.990       .  S
O225        C227   1.291       .  A
O226        C227   1.285       .  A
C227       C4190   1.486       .  S
O228       Zr229   2.440       .  S
O228        H257   0.990   1_455  S
Zr229       O232   2.439       .  S
Zr229       O233   2.440       .  S
Zr229       O234   2.421       .  S
O230        C235   1.285       .  A
O231        H248   0.990       .  S
O231        H263   0.990       .  S
O232        H249   0.990       .  S
O233        H253   0.990       .  S
O233        H262   0.990       .  S
O234        C235   1.282       .  A
C235       C4410   1.475       .  S
O236        H255   0.991       .  S
O236        H259   0.990       .  S
O237        H251   0.990       .  S
O237        H258   0.990       .  S
O238        C242   1.291       .  A
O239        C242   1.278       .  A
O240        H250   0.990       .  S
O241        H254   0.990       .  S
C242       C4150   1.486       .  S
Zr265       O266   2.440       .  S
Zr265       O267   2.446       .  S
Zr265       O268   2.434       .  S
Zr265       O271   2.450       .  S
Zr265       O273   2.389       .  S
Zr265       O274   2.382       .  S
Zr265       O275   2.412       .  S
Zr265       O276   2.392       .  S
O266        H322   0.990       .  S
O266        H330   0.991       .  S
O267        C287   1.287       .  A
O268        C289   1.284   1_556  A
O269       Zr279   2.391       .  S
O269        C288   1.278       .  A
O270       Zr278   2.454   1_554  S
O270        C289   1.289       .  A
O271        C288   1.287       .  A
O272       Zr280   2.432       .  S
O272        C287   1.283       .  A
O273       Zr278   2.401       .  S
O273       Zr280   2.382       .  S
O274       Zr279   2.383       .  S
O274       Zr280   2.375       .  S
O274        H309   0.966       .  S
O275       Zr278   2.406       .  S
O275       Zr295   2.388       .  S
O275        H312   0.966       .  S
O276       Zr279   2.382       .  S
O276       Zr295   2.382       .  S
Zr277       O302   2.444   1_455  S
Zr277       O296   2.461   1_455  S
Zr277       O304   2.463   1_455  S
Zr277       O292   2.414   1_455  S
Zr277       O283   2.410       .  S
Zr277       O284   2.420       .  S
Zr277       O285   2.379       .  S
Zr277       O286   2.376       .  S
Zr278       O297   2.436   1_556  S
Zr278       O290   2.432   1_556  S
Zr278       O291   2.466   1_455  S
Zr278       O284   2.401       .  S
Zr278       O285   2.388       .  S
Zr279       O281   2.436       .  S
Zr279       O303   2.435       .  S
Zr279       O305   2.394       .  S
Zr279       O283   2.382       .  S
Zr279       O286   2.391       .  S
Zr280       O306   2.436       .  S
Zr280       O307   2.438       .  S
Zr280       O282   2.441       .  S
Zr280       O283   2.411       .  S
Zr280       O284   2.397       .  S
O281        H318   0.990       .  S
O282        H313   0.991       .  S
O282        H327   0.990   1_556  S
O284        H310   0.965       .  S
O285       Zr295   2.374       .  S
O286       Zr295   2.371       .  S
O286        H311   0.966       .  S
C287       C4061   1.495       .  S
C288       C4121   1.479       .  S
C289       C4110   1.488       .  S
O290        H326   0.990       .  S
O291        C293   1.292       .  A
O292        C293   1.283       .  A
C293       C4081   1.490       .  S
O294       Zr295   2.439       .  S
O294        H323   0.991       .  S
Zr295       O298   2.439       .  S
Zr295       O299   2.440       .  S
Zr295       O300   2.414       .  S
O296        C301   1.289       .  A
O297        H314   0.990       .  S
O297        H329   0.990       .  S
O298        H315   0.990       .  S
O299        H319   0.990       .  S
O299        H328   0.990       .  S
O300        C301   1.281   1_455  A
C301       C4270   1.485       .  S
O302        H321   0.990       .  S
O302        H325   0.991       .  S
O303        H317   0.990       .  S
O303        H324   0.990       .  S
O304        C308   1.290   1_655  A
O305        C308   1.277       .  A
O306        H316   0.990       .  S
O307        H320   0.990       .  S
C308       C4330   1.480       .  S
Zr331       O332   2.446       .  S
Zr331       O333   2.450       .  S
Zr331       O334   2.441       .  S
Zr331       O337   2.449       .  S
Zr331       O339   2.387       .  S
Zr331       O340   2.387       .  S
Zr331       O341   2.417       .  S
Zr331       O342   2.399       .  S
O332        H388   0.990       .  S
O332        H396   0.991       .  S
O333        C353   1.288       .  A
O334        C355   1.285       .  A
O335       Zr345   2.399       .  S
O335        C354   1.279       .  A
O336       Zr344   2.439       .  S
O336        C355   1.286       .  A
O337        C354   1.287       .  A
O338       Zr346   2.414       .  S
O338        C353   1.279       .  A
O339       Zr344   2.400       .  S
O339       Zr346   2.381       .  S
O340       Zr345   2.385       .  S
O340       Zr346   2.376       .  S
O340        H375   0.966       .  S
O341       Zr344   2.410       .  S
O341       Zr361   2.392       .  S
O341        H378   0.966       .  S
O342       Zr345   2.388       .  S
O342       Zr361   2.386       .  S
Zr343       O368   2.444       .  S
Zr343       O362   2.451       .  S
Zr343       O370   2.458       .  S
Zr343       O358   2.419       .  S
Zr343       O349   2.407       .  S
Zr343       O350   2.416       .  S
Zr343       O351   2.383       .  S
Zr343       O352   2.377       .  S
Zr344       O363   2.435       .  S
Zr344       O356   2.433       .  S
Zr344       O357   2.461       .  S
Zr344       O350   2.400       .  S
Zr344       O351   2.389       .  S
Zr345       O347   2.434       .  S
Zr345       O369   2.437       .  S
Zr345       O371   2.410       .  S
Zr345       O349   2.380       .  S
Zr345       O352   2.387       .  S
Zr346       O372   2.437       .  S
Zr346       O373   2.435       .  S
Zr346       O348   2.437       .  S
Zr346       O349   2.399       .  S
Zr346       O350   2.390       .  S
O347        H384   0.990       .  S
O348        H379   0.990       .  S
O348        H393   0.990       .  S
O350        H376   0.965       .  S
O351       Zr361   2.376       .  S
O352       Zr361   2.371       .  S
O352        H377   0.966       .  S
C353       C4001   1.492       .  S
C354       C4041   1.483       .  S
C355       C4101   1.491       .  S
O356        H392   0.990       .  S
O357        C359   1.291       .  A
O358        C359   1.283       .  A
C359       C4021   1.489       .  S
O360       Zr361   2.438       .  S
O360        H389   0.991       .  S
Zr361       O364   2.438       .  S
Zr361       O365   2.439       .  S
Zr361       O366   2.416       .  S
O362        C367   1.287       .  A
O363        H380   0.990       .  S
O363        H395   0.990       .  S
O364        H381   0.990       .  S
O365        H385   0.990       .  S
O365        H394   0.990       .  S
O366        C367   1.281       .  A
C367       C4501   1.476       .  S
O368        H387   0.990       .  S
O368        H391   0.990       .  S
O369        H383   0.990       .  S
O369        H390   0.990       .  S
O370        C374   1.290       .  A
O371        C374   1.281       .  A
O372        H382   0.990       .  S
O373        H386   0.990       .  S
C374       C4141   1.485       .  S
Zr397       O398   2.439       .  S
Zr397       O399   2.435       .  S
Zr397       O400   2.463       .  S
Zr397       O403   2.458       .  S
Zr397       O405   2.380       .  S
Zr397       O406   2.393       .  S
Zr397       O407   2.409       .  S
Zr397       O408   2.392       .  S
O398        H454   0.990       .  S
O398        H462   0.990       .  S
O399        C419   1.284       .  A
O400        C421   1.288       .  A
O401       Zr411   2.444       .  S
O401        C420   1.288       .  A
O402       Zr410   2.394       .  S
O402        C421   1.278       .  A
O403        C420   1.290       .  A
O404       Zr412   2.439       .  S
O404        C419   1.284       .  A
O405       Zr410   2.391       .  S
O405       Zr412   2.376       .  S
O406       Zr411   2.402       .  S
O406       Zr412   2.383       .  S
O406        H441   0.965       .  S
O407       Zr410   2.398       .  S
O407       Zr427   2.407       .  S
O407        H444   0.966       .  S
O408       Zr411   2.385       .  S
O408       Zr427   2.368       .  S
Zr409       O434   2.443       .  S
Zr409       O428   2.460       .  S
Zr409       O436   2.403       .  S
Zr409       O424   2.449       .  S
Zr409       O415   2.411       .  S
Zr409       O416   2.406       .  S
Zr409       O417   2.371       .  S
Zr409       O418   2.378       .  S
Zr410       O429   2.438       .  S
Zr410       O422   2.438       .  S
Zr410       O423   2.406       .  S
Zr410       O416   2.389       .  S
Zr410       O417   2.386       .  S
Zr411       O413   2.437       .  S
Zr411       O435   2.435       .  S
Zr411       O437   2.456       .  S
Zr411       O415   2.390       .  S
Zr411       O418   2.387       .  S
Zr412       O438   2.435       .  S
Zr412       O439   2.434       .  S
Zr412       O414   2.438       .  S
Zr412       O415   2.401       .  S
Zr412       O416   2.410       .  S
O413        H450   0.990       .  S
O414        H445   0.990       .  S
O414        H459   0.989       .  S
O416        H442   0.966       .  S
O417       Zr427   2.374       .  S
O418       Zr427   2.377       .  S
O418        H443   0.965       .  S
C419       C3921   1.496       .  S
C420       C3961   1.493       .  S
C421       C3981   1.486       .  S
O422        H458   0.990       .  S
O423        C425   1.279       .  A
O424        C425   1.287       .  A
C425       C3901   1.463       .  S
O426       Zr427   2.440       .  S
O426        H455   0.990       .  S
Zr427       O430   2.436       .  S
Zr427       O431   2.443       .  S
Zr427       O432   2.420       .  S
O428        C433   1.288       .  A
O429        H446   0.990       .  S
O429        H461   0.990       .  S
O430        H447   0.990       .  S
O431        H451   0.990       .  S
O431        H460   0.990       .  S
O432        C433   1.283       .  A
C433       C3950   1.481       .  S
O434        H453   0.990       .  S
O434        H457   0.990       .  S
O435        H449   0.990       .  S
O435        H456   0.990       .  S
O436        C440   1.280       .  A
O437        C440   1.289       .  A
O438        H448   0.990       .  S
O439        H452   0.990       .  S
C440       C4161   1.484       .  S
Zr463       O464   2.441       .  S
Zr463       O465   2.437       .  S
Zr463       O466   2.461       .  S
Zr463       O469   2.432       .  S
Zr463       O471   2.373       .  S
Zr463       O472   2.392       .  S
Zr463       O473   2.410       .  S
Zr463       O474   2.402       .  S
O464        H520   0.990       .  S
O464        H528   0.990       .  S
O465        C485   1.284       .  A
O466        C487   1.287       .  A
O467       Zr477   2.444       .  S
O467        C486   1.287       .  A
O468       Zr476   2.383       .  S
O468        C487   1.275       .  A
O469        C486   1.285       .  A
O470       Zr478   2.438       .  S
O470        C485   1.284       .  A
O471       Zr476   2.387       .  S
O471       Zr478   2.375       .  S
O472       Zr477   2.400       .  S
O472       Zr478   2.387       .  S
O472        H507   0.966       .  S
O473       Zr476   2.394       .  S
O473       Zr493   2.404       .  S
O473        H510   0.966       .  S
O474       Zr477   2.392       .  S
O474       Zr493   2.388       .  S
Zr475       O500   2.440   1_455  S
Zr475       O494   2.445   1_455  S
Zr475       O502   2.417   1_455  S
Zr475       O490   2.452   1_455  S
Zr475       O481   2.415       .  S
Zr475       O482   2.407       .  S
Zr475       O483   2.371       .  S
Zr475       O484   2.383       .  S
Zr476       O495   2.438       .  S
Zr476       O488   2.435       .  S
Zr476       O489   2.385       .  S
Zr476       O482   2.384       .  S
Zr476       O483   2.379       .  S
Zr477       O479   2.434       .  S
Zr477       O501   2.435       .  S
Zr477       O503   2.458   1_455  S
Zr477       O481   2.390       .  S
Zr477       O484   2.385       .  S
Zr478       O504   2.437       .  S
Zr478       O505   2.435       .  S
Zr478       O480   2.438       .  S
Zr478       O481   2.407       .  S
Zr478       O482   2.406       .  S
O479        H516   0.990       .  S
O480        H511   0.990       .  S
O480        H525   0.990       .  S
O482        H508   0.966       .  S
O483       Zr493   2.363       .  S
O484       Zr493   2.376       .  S
O484        H509   0.966   1_455  S
C485       C3830   1.496       .  S
C486       C3970   1.488       .  S
C487       C3861   1.475       .  S
O488        H524   0.990       .  S
O489        C491   1.277       .  A
O490        C491   1.288   1_655  A
C491       C3810   1.469       .  S
O492       Zr493   2.435       .  S
O492        H521   0.990       .  S
Zr493       O496   2.437       .  S
Zr493       O497   2.436       .  S
Zr493       O498   2.434   1_455  S
O494        C499   1.286       .  A
O495        H512   0.990       .  S
O495        H527   0.990       .  S
O496        H513   0.990       .  S
O497        H517   0.990       .  S
O497        H526   0.990       .  S
O498        C499   1.284       .  A
C499       C3881   1.475       .  S
O500        H519   0.990       .  S
O500        H523   0.990       .  S
O501        H515   0.990       .  S
O501        H522   0.990       .  S
O502        C506   1.283       .  A
O503        C506   1.290       .  A
O504        H514   0.990       .  S
O505        H518   0.990       .  S
C506       C3841   1.493       .  S
Zr529       O530   2.444       .  S
Zr529       O531   2.426       .  S
Zr529       O532   2.447       .  S
Zr529       O535   2.433       .  S
Zr529       O537   2.377       .  S
Zr529       O538   2.391       .  S
Zr529       O539   2.410       .  S
Zr529       O540   2.401       .  S
O530        H586   0.991       .  S
O530        H594   0.990       .  S
O531        C551   1.281       .  A
O532        C553   1.284       .  A
O533       Zr543   2.442       .  S
O533        C552   1.286       .  A
O534       Zr542   2.391       .  S
O534        C553   1.277       .  A
O535        C552   1.286       .  A
O536       Zr544   2.432       .  S
O536        C551   1.283       .  A
O537       Zr542   2.387       .  S
O537       Zr544   2.375       .  S
O538       Zr543   2.399       .  S
O538       Zr544   2.385       .  S
O538        H573   0.965       .  S
O539       Zr542   2.395       .  S
O539       Zr559   2.399       .  S
O539        H576   0.966       .  S
O540       Zr543   2.390       .  S
O540       Zr559   2.386       .  S
Zr541       O566   2.444       .  S
Zr541       O560   2.444       .  S
Zr541       O568   2.428       .  S
Zr541       O556   2.466       .  S
Zr541       O547   2.413       .  S
Zr541       O548   2.403       .  S
Zr541       O549   2.381       .  S
Zr541       O550   2.390       .  S
Zr542       O561   2.437       .  S
Zr542       O554   2.434       .  S
Zr542       O555   2.395       .  S
Zr542       O548   2.384       .  S
Zr542       O549   2.387       .  S
Zr543       O545   2.436       .  S
Zr543       O567   2.437       .  S
Zr543       O569   2.449       .  S
Zr543       O547   2.390       .  S
Zr543       O550   2.391       .  S
Zr544       O570   2.435       .  S
Zr544       O571   2.435       .  S
Zr544       O546   2.436       .  S
Zr544       O547   2.399       .  S
Zr544       O548   2.401       .  S
O545        H582   0.990       .  S
O546        H577   0.990       .  S
O546        H591   0.990       .  S
O548        H574   0.965       .  S
O549       Zr559   2.375       .  S
O550       Zr559   2.380       .  S
O550        H575   0.966       .  S
C551       C3741   1.489       .  S
C552       C3781   1.490       .  S
C553       C3761   1.475       .  S
O554        H590   0.990       .  S
O555        C557   1.278       .  A
O556        C557   1.290       .  A
C557       C3730   1.483       .  S
O558       Zr559   2.440       .  S
O558        H587   0.990       .  S
Zr559       O562   2.436       .  S
Zr559       O563   2.442       .  S
Zr559       O564   2.426       .  S
O560        C565   1.286       .  A
O561        H578   0.990       .  S
O561        H593   0.990       .  S
O562        H579   0.990       .  S
O563        H583   0.990       .  S
O563        H592   0.990       .  S
O564        C565   1.283       .  A
C565       C3941   1.479       .  S
O566        H585   0.990       .  S
O566        H589   0.990       .  S
O567        H581   0.990       .  S
O567        H588   0.990       .  S
O568        C572   1.285       .  A
O569        C572   1.289       .  A
O570        H580   0.991       .  S
O571        H584   0.990       .  S
C572       C4230   1.492       .  S
Zr595       O596   2.440       .  S
Zr595       O597   2.420       .  S
Zr595       O598   2.448       .  S
Zr595       O601   2.419       .  S
Zr595       O603   2.371       .  S
Zr595       O604   2.392       .  S
Zr595       O605   2.402       .  S
Zr595       O606   2.394       .  S
O596        H652   0.990       .  S
O596        H660   0.990       .  S
O597        C617   1.281       .  A
O598        C619   1.285       .  A
O599       Zr609   2.445   1_556  S
O599        C618   1.288       .  A
O600       Zr608   2.391       .  S
O600        C619   1.278       .  A
O601        C618   1.283   1_554  A
O602       Zr610   2.446       .  S
O602        C617   1.286       .  A
O603       Zr608   2.383       .  S
O603       Zr610   2.372       .  S
O604       Zr609   2.398       .  S
O604       Zr610   2.378       .  S
O604        H639   0.965       .  S
O605       Zr608   2.388       .  S
O605       Zr625   2.400       .  S
O605        H642   0.967       .  S
O606       Zr609   2.388       .  S
O606       Zr625   2.373       .  S
Zr607       O632   2.445       .  S
Zr607       O626   2.460       .  S
Zr607       O634   2.427   1_655  S
Zr607       O622   2.471       .  S
Zr607       O613   2.413       .  S
Zr607       O614   2.408       .  S
Zr607       O615   2.376       .  S
Zr607       O616   2.390       .  S
Zr608       O627   2.435       .  S
Zr608       O620   2.435       .  S
Zr608       O621   2.385       .  S
Zr608       O614   2.386       .  S
Zr608       O615   2.378       .  S
Zr609       O611   2.434   1_554  S
Zr609       O633   2.434   1_554  S
Zr609       O635   2.464       .  S
Zr609       O613   2.389       .  S
Zr609       O616   2.386       .  S
Zr610       O636   2.437       .  S
Zr610       O637   2.439       .  S
Zr610       O612   2.436       .  S
Zr610       O613   2.403       .  S
Zr610       O614   2.410       .  S
O611        H648   0.990       .  S
O612        H643   0.990       .  S
O612        H657   0.990       .  S
O614        H640   0.965       .  S
O615       Zr625   2.373       .  S
O616       Zr625   2.385       .  S
O616        H641   0.966       .  S
C617       C3641   1.493       .  S
C618       C3790   1.482       .  S
C619       C3690   1.478       .  S
O620        H656   0.990       .  S
O621        C623   1.277       .  A
O622        C623   1.291       .  A
C623       C3801   1.489       .  S
O624       Zr625   2.441       .  S
O624        H653   0.990       .  S
Zr625       O628   2.438       .  S
Zr625       O629   2.439       .  S
Zr625       O630   2.406       .  S
O626        C631   1.289       .  A
O627        H644   0.990       .  S
O627        H659   0.990       .  S
O628        H645   0.990       .  S
O629        H649   0.990       .  S
O629        H658   0.990       .  S
O630        C631   1.281       .  A
C631       C3710   1.474   1_655  S
O632        H651   0.991       .  S
O632        H655   0.990       .  S
O633        H647   0.990       .  S
O633        H654   0.990       .  S
O634        C638   1.285       .  A
O635        C638   1.291   1_655  A
O636        H646   0.990       .  S
O637        H650   0.990       .  S
C638       C3661   1.500       .  S
Zr661       O662   2.439       .  S
Zr661       O663   2.427       .  S
Zr661       O664   2.445       .  S
Zr661       O667   2.427       .  S
Zr661       O669   2.370       .  S
Zr661       O670   2.393       .  S
Zr661       O671   2.407       .  S
Zr661       O672   2.387       .  S
O662        H718   0.990       .  S
O662        H726   0.991       .  S
O663        C683   1.282       .  A
O664        C685   1.285       .  A
O665       Zr675   2.450       .  S
O665        C684   1.289       .  A
O666       Zr674   2.401       .  S
O666        C685   1.279       .  A
O667        C684   1.283       .  A
O668       Zr676   2.442       .  S
O668        C683   1.285       .  A
O669       Zr674   2.382       .  S
O669       Zr676   2.369       .  S
O670       Zr675   2.404       .  S
O670       Zr676   2.390       .  S
O670        H705   0.966       .  S
O671       Zr674   2.396       .  S
O671       Zr691   2.403       .  S
O671        H708   0.967       .  S
O672       Zr675   2.389       .  S
O672       Zr691   2.380       .  S
Zr673       O698   2.441       .  S
Zr673       O692   2.452       .  S
Zr673       O700   2.439       .  S
Zr673       O688   2.463       .  S
Zr673       O679   2.403       .  S
Zr673       O680   2.409       .  S
Zr673       O681   2.379       .  S
Zr673       O682   2.383       .  S
Zr674       O693   2.438       .  S
Zr674       O686   2.434       .  S
Zr674       O687   2.402       .  S
Zr674       O680   2.389       .  S
Zr674       O681   2.383       .  S
Zr675       O677   2.436       .  S
Zr675       O699   2.437       .  S
Zr675       O701   2.458       .  S
Zr675       O679   2.392       .  S
Zr675       O682   2.388       .  S
Zr676       O702   2.433       .  S
Zr676       O703   2.438       .  S
Zr676       O678   2.440       .  S
Zr676       O679   2.405       .  S
Zr676       O680   2.406       .  S
O677        H714   0.990       .  S
O678        H709   0.991       .  S
O678        H723   0.990       .  S
O680        H706   0.965       .  S
O681       Zr691   2.367       .  S
O682       Zr691   2.388       .  S
O682        H707   0.965       .  S
C683       C4030   1.495       .  S
C684       C3621   1.486       .  S
C685       C4310   1.474       .  S
O686        H722   0.990       .  S
O687        C689   1.280       .  A
O688        C689   1.291       .  A
C689       C3910   1.481   1_554  S
O690       Zr691   2.442       .  S
O690        H719   0.990       .  S
Zr691       O694   2.439       .  S
Zr691       O695   2.440       .  S
Zr691       O696   2.416       .  S
O692        C697   1.288       .  A
O693        H710   0.990   1_554  S
O693        H725   0.990       .  S
O694        H711   0.990       .  S
O695        H715   0.990       .  S
O695        H724   0.990       .  S
O696        C697   1.281       .  A
C697       C3701   1.475       .  S
O698        H717   0.990       .  S
O698        H721   0.990       .  S
O699        H713   0.991       .  S
O699        H720   0.990       .  S
O700        C704   1.287       .  A
O701        C704   1.290       .  A
O702        H712   0.990       .  S
O703        H716   0.990       .  S
C704       C3601   1.501       .  S
Zr727       O728   2.437       .  S
Zr727       O729   2.456       .  S
Zr727       O730   2.460       .  S
Zr727       O733   2.450       .  S
Zr727       O735   2.374       .  S
Zr727       O736   2.394       .  S
Zr727       O737   2.413       .  S
Zr727       O738   2.401       .  S
O728        H784   0.990       .  S
O728        H792   0.991       .  S
O729        C749   1.289       .  A
O730        C751   1.288       .  A
O731       Zr741   2.442       .  S
O731        C750   1.287       .  A
O732       Zr740   2.391       .  S
O732        C751   1.275       .  A
O733        C750   1.288       .  A
O734       Zr742   2.421       .  S
O734        C749   1.281       .  A
O735       Zr740   2.380       .  S
O735       Zr742   2.374       .  S
O736       Zr741   2.401       .  S
O736       Zr742   2.386       .  S
O736        H771   0.966       .  S
O737       Zr740   2.391       .  S
O737       Zr757   2.396       .  S
O737        H774   0.965       .  S
O738       Zr741   2.393       .  S
O738       Zr757   2.383       .  S
Zr739       O764   2.445       .  S
Zr739       O758   2.437       .  S
Zr739       O766   2.419       .  S
Zr739       O754   2.462       .  S
Zr739       O745   2.411       .  S
Zr739       O746   2.403       .  S
Zr739       O747   2.375       .  S
Zr739       O748   2.389       .  S
Zr740       O759   2.436       .  S
Zr740       O752   2.437       .  S
Zr740       O753   2.388       .  S
Zr740       O746   2.384       .  S
Zr740       O747   2.385       .  S
Zr741       O743   2.436       .  S
Zr741       O765   2.436       .  S
Zr741       O767   2.452       .  S
Zr741       O745   2.390       .  S
Zr741       O748   2.389       .  S
Zr742       O768   2.437       .  S
Zr742       O769   2.436       .  S
Zr742       O744   2.439       .  S
Zr742       O745   2.396       .  S
Zr742       O746   2.399       .  S
O743        H780   0.990       .  S
O744        H775   0.990       .  S
O744        H789   0.990       .  S
O746        H772   0.966       .  S
O747       Zr757   2.375       .  S
O748       Zr757   2.376       .  S
O748        H773   0.966       .  S
C749       C4470   1.497       .  S
C750       C3630   1.491       .  S
C751       C4201   1.482       .  S
O752        H788   0.990       .  S
O753        C755   1.277       .  A
O754        C755   1.289       .  A
C755       C3721   1.479       .  S
O756       Zr757   2.441       .  S
O756        H785   0.990       .  S
Zr757       O760   2.438       .  S
Zr757       O761   2.441       .  S
Zr757       O762   2.424       .  S
O758        C763   1.285       .  A
O759        H776   0.990       .  S
O759        H791   0.990       .  S
O760        H777   0.990       .  S
O761        H781   0.990       .  S
O761        H790   0.990       .  S
O762        C763   1.283       .  A
C763       C3890   1.471       .  S
O764        H783   0.990       .  S
O764        H787   0.990       .  S
O765        H779   0.990       .  S
O765        H786   0.990       .  S
O766        C770   1.284       .  A
O767        C770   1.288       .  A
O768        H778   0.990       .  S
O769        H782   0.990       .  S
C770       C3581   1.489       .  S
Zr793       O794   2.440       .  S
Zr793       O795   2.426       .  S
Zr793       O796   2.442       .  S
Zr793       O799   2.431       .  S
Zr793       O801   2.384       .  S
Zr793       O802   2.385       .  S
Zr793       O803   2.411       .  S
Zr793       O804   2.396       .  S
O794        H850   0.990       .  S
O794        H858   0.990       .  S
O795        C815   1.282       .  A
O796        C817   1.285       .  A
O797       Zr807   2.403       .  S
O797        C816   1.281       .  A
O798       Zr806   2.433       .  S
O798        C817   1.285       .  A
O799        C816   1.284       .  A
O800       Zr808   2.429       .  S
O800        C815   1.282       .  A
O801       Zr806   2.402       .  S
O801       Zr808   2.380       .  S
O802       Zr807   2.389       .  S
O802       Zr808   2.368       .  S
O802        H837   0.966       .  S
O803       Zr806   2.408       .  S
O803       Zr823   2.386       .  S
O803        H840   0.966       .  S
O804       Zr807   2.386       .  S
O804       Zr823   2.385       .  S
Zr805       O830   2.443       .  S
Zr805       O824   2.463       .  S
Zr805       O832   2.448       .  S
Zr805       O820   2.413       .  S
Zr805       O811   2.404       .  S
Zr805       O812   2.416       .  S
Zr805       O813   2.375       .  S
Zr805       O814   2.374       .  S
Zr806       O825   2.437       .  S
Zr806       O818   2.434       .  S
Zr806       O819   2.453       .  S
Zr806       O812   2.397       .  S
Zr806       O813   2.388       .  S
Zr807       O809   2.436       .  S
Zr807       O831   2.438       .  S
Zr807       O833   2.413       .  S
Zr807       O811   2.381       .  S
Zr807       O814   2.387       .  S
Zr808       O834   2.433       .  S
Zr808       O835   2.434       .  S
Zr808       O810   2.437       .  S
Zr808       O811   2.401       .  S
Zr808       O812   2.395       .  S
O809        H846   0.990       .  S
O810        H841   0.990       .  S
O810        H855   0.990       .  S
O812        H838   0.966       .  S
O813       Zr823   2.377       .  S
O814       Zr823   2.370       .  S
O814        H839   0.966       .  S
C815       C3590   1.489       .  S
C816       C3681   1.469       .  S
C817       C3541   1.490       .  S
O818        H854   0.989       .  S
O819        C821   1.289       .  A
O820        C821   1.283       .  A
C821       C3530   1.485       .  S
O822       Zr823   2.438       .  S
O822        H851   0.990       .  S
Zr823       O826   2.436       .  S
Zr823       O827   2.437       .  S
Zr823       O828   2.423       .  S
O824        C829   1.290       .  A
O825        H842   0.990       .  S
O825        H857   0.990       .  S
O826        H843   0.990       .  S
O827        H847   0.989       .  S
O827        H856   0.990       .  S
O828        C829   1.283       .  A
C829       C3561   1.486       .  S
O830        H849   0.991       .  S
O830        H853   0.990       .  S
O831        H845   0.990       .  S
O831        H852   0.990       .  S
O832        C836   1.288       .  A
O833        C836   1.282       .  A
O834        H844   0.990       .  S
O835        H848   0.990       .  S
C836       C3501   1.482       .  S
Zr859       O860   2.441       .  S
Zr859       O861   2.450       .  S
Zr859       O862   2.438       .  S
Zr859       O865   2.446       .  S
Zr859       O867   2.389       .  S
Zr859       O868   2.382       .  S
Zr859       O869   2.416       .  S
Zr859       O870   2.399       .  S
O860        H916   0.990       .  S
O860        H924   0.990       .  S
O861        C881   1.287       .  A
O862        C883   1.285       .  A
O863       Zr873   2.398       .  S
O863        C882   1.279       .  A
O864       Zr872   2.452       .  S
O864        C883   1.289       .  A
O865        C882   1.286       .  A
O866       Zr874   2.424       .  S
O866        C881   1.282       .  A
O867       Zr872   2.397       .  S
O867       Zr874   2.375       .  S
O868       Zr873   2.385       .  S
O868       Zr874   2.376       .  S
O868        H903   0.966       .  S
O869       Zr872   2.409       .  S
O869       Zr889   2.385       .  S
O869        H906   0.965       .  S
O870       Zr873   2.387       .  S
O870       Zr889   2.391       .  S
Zr871       O896   2.440       .  S
Zr871       O890   2.476       .  S
Zr871       O898   2.469       .  S
Zr871       O886   2.421       .  S
Zr871       O877   2.411       .  S
Zr871       O878   2.427       .  S
Zr871       O879   2.381       .  S
Zr871       O880   2.371       .  S
Zr872       O891   2.434       .  S
Zr872       O884   2.436       .  S
Zr872       O885   2.455       .  S
Zr872       O878   2.402       .  S
Zr872       O879   2.397       .  S
Zr873       O875   2.433       .  S
Zr873       O897   2.436       .  S
Zr873       O899   2.397       .  S
Zr873       O877   2.383       .  S
Zr873       O880   2.390       .  S
Zr874       O900   2.436       .  S
Zr874       O901   2.437       .  S
Zr874       O876   2.440       .  S
Zr874       O877   2.410       .  S
Zr874       O878   2.395       .  S
O875        H912   0.990       .  S
O876        H907   0.991       .  S
O876        H921   0.990       .  S
O878        H904   0.966       .  S
O879       Zr889   2.376       .  S
O880       Zr889   2.375       .  S
O880        H905   0.966       .  S
C881       C3850   1.496       .  S
C882       C3770   1.475       .  S
C883       C3550   1.488       .  S
O884        H920   0.990       .  S
O885        C887   1.290       .  A
O886        C887   1.284       .  A
C887       C3461   1.484       .  S
O888       Zr889   2.439       .  S
O888        H917   0.990       .  S
Zr889       O892   2.439       .  S
Zr889       O893   2.442       .  S
Zr889       O894   2.412       .  S
O890        C895   1.291       .  A
O891        H908   0.990       .  S
O891        H923   0.990       .  S
O892        H909   0.990       .  S
O893        H913   0.990       .  S
O893        H922   0.990       .  S
O894        C895   1.279       .  A
C895       C3490   1.483       .  S
O896        H915   0.990       .  S
O896        H919   0.990       .  S
O897        H911   0.990       .  S
O897        H918   0.990       .  S
O898        C902   1.291       .  A
O899        C902   1.278       .  A
O900        H910   0.991       .  S
O901        H914   0.990       .  S
C902       C3450   1.488       .  S
Zr925       O926   2.439       .  S
Zr925       O927   2.456       .  S
Zr925       O928   2.435       .  S
Zr925       O931   2.444       .  S
Zr925       O933   2.382       .  S
Zr925       O934   2.373       .  S
Zr925       O935   2.415       .  S
Zr925       O936   2.406       .  S
O926        H982   0.990       .  S
O926        H990   0.990       .  S
O927        C947   1.288       .  A
O928        C949   1.285   1_556  A
O929       Zr939   2.393       .  S
O929        C948   1.278       .  A
O930       Zr938   2.444   1_554  S
O930        C949   1.286       .  A
O931        C948   1.286       .  A
O932       Zr940   2.420       .  S
O932        C947   1.281       .  A
O933       Zr938   2.400       .  S
O933       Zr940   2.383       .  S
O934       Zr939   2.382       .  S
O934       Zr940   2.375       .  S
O934        H969   0.966       .  S
O935       Zr938   2.408       .  S
O935       Zr955   2.389       .  S
O935        H972   0.965       .  S
O936       Zr939   2.381       .  S
O936       Zr955   2.397       .  S
Zr937       O962   2.446       .  S
Zr937       O956   2.465       .  S
Zr937       O964   2.480       .  S
Zr937       O952   2.423       .  S
Zr937       O943   2.403       .  S
Zr937       O944   2.418       .  S
Zr937       O945   2.389       .  S
Zr937       O946   2.374       .  S
Zr938       O957   2.439   1_556  S
Zr938       O950   2.435   1_556  S
Zr938       O951   2.449       .  S
Zr938       O944   2.400       .  S
Zr938       O945   2.393       .  S
Zr939       O941   2.436       .  S
Zr939       O963   2.435       .  S
Zr939       O965   2.392       .  S
Zr939       O943   2.381       .  S
Zr939       O946   2.385       .  S
Zr940       O966   2.436       .  S
Zr940       O967   2.435       .  S
Zr940       O942   2.439       .  S
Zr940       O943   2.404       .  S
Zr940       O944   2.381       .  S
O941        H978   0.990       .  S
O942        H973   0.990       .  S
O942        H987   0.990       .  S
O944        H970   0.965       .  S
O945       Zr955   2.368       .  S
O946       Zr955   2.372       .  S
O946        H971   0.965       .  S
C947       C3361   1.496       .  S
C948       C3430   1.472       .  S
C949       C3401   1.490       .  S
O950        H986   0.990       .  S
O951        C953   1.289       .  A
O952        C953   1.285       .  A
C953       C3650   1.483       .  S
O954       Zr955   2.439       .  S
O954        H983   0.991       .  S
Zr955       O958   2.438       .  S
Zr955       O959   2.443       .  S
Zr955       O960   2.423       .  S
O956        C961   1.290       .  A
O957        H974   0.990       .  S
O957        H989   0.990       .  S
O958        H975   0.990       .  S
O959        H979   0.990       .  S
O959        H988   0.990       .  S
O960        C961   1.283       .  A
C961       C3381   1.487       .  S
O962        H981   0.990       .  S
O962        H985   0.990       .  S
O963        H977   0.990       .  S
O963        H984   0.990       .  S
O964        C968   1.294       .  A
O965        C968   1.277       .  A
O966        H976   0.990       .  S
O967        H980   0.990       .  S
C968       C3441   1.493       .  S
Zr991       O992   2.441       .  S
Zr991       O993   2.438       .  S
Zr991       O994   2.440       .  S
Zr991       O997   2.457       .  S
Zr991       O999   2.385       .  S
Zr991      O1000   2.382       .  S
Zr991      O1001   2.413       .  S
Zr991      O1002   2.399       .  S
O992       H1048   0.990       .  S
O992       H1056   0.990       .  S
O993       C1013   1.284       .  A
O994       C1015   1.285       .  A
O995      Zr1005   2.398       .  S
O995       C1014   1.278       .  A
O996      Zr1004   2.426       .  S
O996       C1015   1.284       .  A
O997       C1014   1.290       .  A
O998      Zr1006   2.431       .  S
O998       C1013   1.284       .  A
O999      Zr1004   2.399       .  S
O999      Zr1006   2.375       .  S
O1000     Zr1005   2.383       .  S
O1000     Zr1006   2.373       .  S
O1000      H1035   0.967       .  S
O1001     Zr1004   2.413       .  S
O1001     Zr1021   2.395       .  S
O1001      H1038   0.966       .  S
O1002     Zr1005   2.391       .  S
O1002     Zr1021   2.390       .  S
Zr1003     O1028   2.443       .  S
Zr1003     O1022   2.450       .  S
Zr1003     O1030   2.455       .  S
Zr1003     O1018   2.434       .  S
Zr1003     O1009   2.406       .  S
Zr1003     O1010   2.410       .  S
Zr1003     O1011   2.381       .  S
Zr1003     O1012   2.382       .  S
Zr1004     O1023   2.433       .  S
Zr1004     O1016   2.435       .  S
Zr1004     O1017   2.461       .  S
Zr1004     O1010   2.395       .  S
Zr1004     O1011   2.383       .  S
Zr1005     O1007   2.436       .  S
Zr1005     O1029   2.436       .  S
Zr1005     O1031   2.398       .  S
Zr1005     O1009   2.379       .  S
Zr1005     O1012   2.387       .  S
Zr1006     O1032   2.438       .  S
Zr1006     O1033   2.438       .  S
Zr1006     O1008   2.437       .  S
Zr1006     O1009   2.400       .  S
Zr1006     O1010   2.391       .  S
O1007      H1044   0.990       .  S
O1008      H1039   0.990       .  S
O1008      H1053   0.990       .  S
O1010      H1036   0.966       .  S
O1011     Zr1021   2.381       .  S
O1012     Zr1021   2.369       .  S
O1012      H1037   0.965       .  S
C1013      C3321   1.487       .  S
C1014      C3350   1.475       .  S
C1015      C3410   1.481       .  S
O1016      H1052   0.990       .  S
O1017      C1019   1.291       .  A
O1018      C1019   1.286       .  A
C1019      C3301   1.494       .  S
O1020     Zr1021   2.445       .  S
O1020      H1049   0.991       .  S
Zr1021     O1024   2.437       .  S
Zr1021     O1025   2.441       .  S
Zr1021     O1026   2.427       .  S
O1022      C1027   1.288       .  A
O1023      H1040   0.990       .  S
O1023      H1055   0.990       .  S
O1024      H1041   0.989       .  S
O1025      H1045   0.990       .  S
O1025      H1054   0.990       .  S
O1026      C1027   1.284       .  A
C1027      C3570   1.481       .  S
O1028      H1047   0.991       .  S
O1028      H1051   0.990       .  S
O1029      H1043   0.990       .  S
O1029      H1050   0.990       .  S
O1030      C1034   1.290       .  A
O1031      C1034   1.280       .  A
O1032      H1042   0.990       .  S
O1033      H1046   0.990       .  S
C1034      C3290   1.481       .  S
Zr1057     O1058   2.446       .  S
Zr1057     O1059   2.445       .  S
Zr1057     O1060   2.427       .  S
Zr1057     O1063   2.456       .  S
Zr1057     O1065   2.393       .  S
Zr1057     O1066   2.380       .  S
Zr1057     O1067   2.421       .  S
Zr1057     O1068   2.398       .  S
O1058      H1114   0.990       .  S
O1058      H1122   0.991       .  S
O1059      C1079   1.286       .  A
O1060      C1081   1.282       .  A
O1061     Zr1071   2.408       .  S
O1061      C1080   1.280       .  A
O1062     Zr1070   2.446       .  S
O1062      C1081   1.287       .  A
O1063      C1080   1.288       .  A
O1064     Zr1072   2.430       .  S
O1064      C1079   1.283       .  A
O1065     Zr1070   2.406       .  S
O1065     Zr1072   2.384       .  S
O1066     Zr1071   2.375       .  S
O1066     Zr1072   2.380       .  S
O1066      H1101   0.966       .  S
O1067     Zr1070   2.415       .  S
O1067     Zr1087   2.387       .  S
O1067      H1104   0.966       .  S
O1068     Zr1071   2.382       .  S
O1068     Zr1087   2.390       .  S
Zr1069     O1094   2.443       .  S
Zr1069     O1088   2.461       .  S
Zr1069     O1096   2.463       .  S
Zr1069     O1084   2.433       .  S
Zr1069     O1075   2.411       .  S
Zr1069     O1076   2.419       .  S
Zr1069     O1077   2.380       .  S
Zr1069     O1078   2.382       .  S
Zr1070     O1089   2.435       .  S
Zr1070     O1082   2.435       .  S
Zr1070     O1083   2.469       .  S
Zr1070     O1076   2.399       .  S
Zr1070     O1077   2.388       .  S
Zr1071     O1073   2.436       .  S
Zr1071     O1095   2.437       .  S
Zr1071     O1097   2.386       .  S
Zr1071     O1075   2.377       .  S
Zr1071     O1078   2.397       .  S
Zr1072     O1098   2.438       .  S
Zr1072     O1099   2.435       .  S
Zr1072     O1074   2.436       .  S
Zr1072     O1075   2.401       .  S
Zr1072     O1076   2.396       .  S
O1073      H1110   0.990       .  S
O1074      H1105   0.990       .  S
O1074      H1119   0.990       .  S
O1076      H1102   0.966       .  S
O1077     Zr1087   2.375       .  S
O1078     Zr1087   2.366       .  S
O1078      H1103   0.965       .  S
C1079      C3210   1.496       .  S
C1080      C3250   1.489       .  S
C1081      C3261   1.481       .  S
O1082      H1118   0.990       .  S
O1083      C1085   1.292       .  A
O1084      C1085   1.286       .  A
C1085      C3221   1.492       .  S
O1086     Zr1087   2.438       .  S
O1086      H1115   0.990       .  S
Zr1087     O1090   2.439       .  S
Zr1087     O1091   2.440       .  S
Zr1087     O1092   2.424       .  S
O1088      C1093   1.289       .  A
O1089      H1106   0.990       .  S
O1089      H1121   0.990       .  S
O1090      H1107   0.990       .  S
O1091      H1111   0.990       .  S
O1091      H1120   0.990       .  S
O1092      C1093   1.282       .  A
C1093      C3481   1.482       .  S
O1094      H1113   0.990       .  S
O1094      H1117   0.990       .  S
O1095      H1109   0.990       .  S
O1095      H1116   0.990       .  S
O1096      C1100   1.291       .  A
O1097      C1100   1.276       .  A
O1098      H1108   0.990       .  S
O1099      H1112   0.990       .  S
C1100      C3281   1.480       .  S
Zr1123     O1124   2.445       .  S
Zr1123     O1125   2.443       .  S
Zr1123     O1126   2.419       .  S
Zr1123     O1129   2.450       .  S
Zr1123     O1131   2.392       .  S
Zr1123     O1132   2.378       .  S
Zr1123     O1133   2.418       .  S
Zr1123     O1134   2.396       .  S
O1124      H1180   0.990       .  S
O1124      H1188   0.991       .  S
O1125      C1145   1.285       .  A
O1126      C1147   1.282       .  A
O1127     Zr1137   2.385       .  S
O1127      C1146   1.276       .  A
O1128     Zr1136   2.457       .  S
O1128      C1147   1.289       .  A
O1129      C1146   1.287       .  A
O1130     Zr1138   2.432       .  S
O1130      C1145   1.284       .  A
O1131     Zr1136   2.403       .  S
O1131     Zr1138   2.379       .  S
O1132     Zr1137   2.385       .  S
O1132     Zr1138   2.376       .  S
O1132      H1167   0.966       .  S
O1133     Zr1136   2.411       .  S
O1133     Zr1153   2.389       .  S
O1133      H1170   0.965       .  S
O1134     Zr1137   2.382       .  S
O1134     Zr1153   2.391       .  S
Zr1135     O1160   2.446       .  S
Zr1135     O1154   2.473       .  S
Zr1135     O1162   2.468       .  S
Zr1135     O1150   2.424       .  S
Zr1135     O1141   2.402       .  S
Zr1135     O1142   2.425       .  S
Zr1135     O1143   2.385       .  S
Zr1135     O1144   2.373       .  S
Zr1136     O1155   2.435       .  S
Zr1136     O1148   2.435       .  S
Zr1136     O1149   2.462       .  S
Zr1136     O1142   2.402       .  S
Zr1136     O1143   2.393       .  S
Zr1137     O1139   2.436       .  S
Zr1137     O1161   2.434       .  S
Zr1137     O1163   2.392       .  S
Zr1137     O1141   2.374       .  S
Zr1137     O1144   2.386       .  S
Zr1138     O1164   2.438       .  S
Zr1138     O1165   2.436       .  S
Zr1138     O1140   2.436       .  S
Zr1138     O1141   2.400       .  S
Zr1138     O1142   2.397       .  S
O1139      H1176   0.990   1_556  S
O1140      H1171   0.991       .  S
O1140      H1185   0.990       .  S
O1142      H1168   0.965       .  S
O1143     Zr1153   2.372       .  S
O1144     Zr1153   2.378       .  S
O1144      H1169   0.965       .  S
C1145      C3161   1.497       .  S
C1146      C3190   1.473       .  S
C1147      C3270   1.490       .  S
O1148      H1184   0.990       .  S
O1149      C1151   1.291       .  A
O1150      C1151   1.283       .  A
C1151      C3750   1.496       .  S
O1152     Zr1153   2.440       .  S
O1152      H1181   0.990       .  S
Zr1153     O1156   2.441       .  S
Zr1153     O1157   2.438       .  S
Zr1153     O1158   2.417       .  S
O1154      C1159   1.291       .  A
O1155      H1172   0.990       .  S
O1155      H1187   0.990       .  S
O1156      H1173   0.990       .  S
O1157      H1177   0.990       .  S
O1157      H1186   0.990       .  S
O1158      C1159   1.282       .  A
C1159      C3390   1.488       .  S
O1160      H1179   0.991       .  S
O1160      H1183   0.988       .  S
O1161      H1175   0.990       .  S
O1161      H1182   0.990       .  S
O1162      C1166   1.291       .  A
O1163      C1166   1.278       .  A
O1164      H1174   0.991       .  S
O1165      H1178   0.990       .  S
C1166      C3510   1.489   1_556  S
Zr1189     O1190   2.441       .  S
Zr1189     O1191   2.415       .  S
Zr1189     O1192   2.455       .  S
Zr1189     O1195   2.430       .  S
Zr1189     O1197   2.376       .  S
Zr1189     O1198   2.394       .  S
Zr1189     O1199   2.403       .  S
Zr1189     O1200   2.388       .  S
O1190      H1246   0.990       .  S
O1190      H1254   0.991       .  S
O1191      C1211   1.279       .  A
O1192      C1213   1.287       .  A
O1193     Zr1203   2.440       .  S
O1193      C1212   1.286       .  A
O1194     Zr1202   2.401       .  S
O1194      C1213   1.278       .  A
O1195      C1212   1.285       .  A
O1196     Zr1204   2.437       .  S
O1196      C1211   1.284       .  A
O1197     Zr1202   2.387       .  S
O1197     Zr1204   2.374       .  S
O1198     Zr1203   2.396       .  S
O1198     Zr1204   2.384       .  S
O1198      H1233   0.966       .  S
O1199     Zr1202   2.394       .  S
O1199     Zr1219   2.395       .  S
O1199      H1236   0.965       .  S
O1200     Zr1203   2.392       .  S
O1200     Zr1219   2.379       .  S
Zr1201     O1226   2.438       .  S
Zr1201     O1220   2.450       .  S
Zr1201     O1228   2.421       .  S
Zr1201     O1216   2.455       .  S
Zr1201     O1207   2.409       .  S
Zr1201     O1208   2.409       .  S
Zr1201     O1209   2.372       .  S
Zr1201     O1210   2.386       .  S
Zr1202     O1221   2.441       .  S
Zr1202     O1214   2.434       .  S
Zr1202     O1215   2.398       .  S
Zr1202     O1208   2.388       .  S
Zr1202     O1209   2.385       .  S
Zr1203     O1205   2.435       .  S
Zr1203     O1227   2.438       .  S
Zr1203     O1229   2.461       .  S
Zr1203     O1207   2.389       .  S
Zr1203     O1210   2.376       .  S
Zr1204     O1230   2.437       .  S
Zr1204     O1231   2.436       .  S
Zr1204     O1206   2.440       .  S
Zr1204     O1207   2.397       .  S
Zr1204     O1208   2.412       .  S
O1205      H1242   0.990       .  S
O1206      H1237   0.990       .  S
O1206      H1251   0.989       .  S
O1208      H1234   0.965       .  S
O1209     Zr1219   2.368       .  S
O1210     Zr1219   2.384       .  S
O1210      H1235   0.965       .  S
C1211      C3521   1.488       .  S
C1212      C3121   1.481       .  S
C1213      C3241   1.478       .  S
O1214      H1250   0.990       .  S
O1215      C1217   1.279       .  A
O1216      C1217   1.289       .  A
C1217      C3081   1.473       .  S
O1218     Zr1219   2.442       .  S
O1218      H1247   0.990       .  S
Zr1219     O1222   2.437       .  S
Zr1219     O1223   2.436       .  S
Zr1219     O1224   2.420       .  S
O1220      C1225   1.287       .  A
O1221      H1238   0.990       .  S
O1221      H1253   0.990       .  S
O1222      H1239   0.990       .  S
O1223      H1243   0.990       .  S
O1223      H1252   0.990       .  S
O1224      C1225   1.283       .  A
C1225      C3141   1.470       .  S
O1226      H1245   0.990       .  S
O1226      H1249   0.990       .  S
O1227      H1241   0.990       .  S
O1227      H1248   0.990       .  S
O1228      C1232   1.284       .  A
O1229      C1232   1.291       .  A
O1230      H1240   0.990       .  S
O1231      H1244   0.990       .  S
C1232      C3110   1.493       .  S
Zr1255     O1256   2.441       .  S
Zr1255     O1257   2.428       .  S
Zr1255     O1258   2.455       .  S
Zr1255     O1261   2.427       .  S
Zr1255     O1263   2.369       .  S
Zr1255     O1264   2.388       .  S
Zr1255     O1265   2.396       .  S
Zr1255     O1266   2.400       .  S
O1256      H1312   0.990       .  S
O1256      H1320   0.991       .  S
O1257      C1277   1.283       .  A
O1258      C1279   1.287       .  A
O1259     Zr1269   2.441       .  S
O1259      C1278   1.287       .  A
O1260     Zr1268   2.382       .  S
O1260      C1279   1.275       .  A
O1261      C1278   1.285       .  A
O1262     Zr1270   2.435       .  S
O1262      C1277   1.285       .  A
O1263     Zr1268   2.380       .  S
O1263     Zr1270   2.370       .  S
O1264     Zr1269   2.395       .  S
O1264     Zr1270   2.383       .  S
O1264      H1299   0.965       .  S
O1265     Zr1268   2.389       .  S
O1265     Zr1285   2.401       .  S
O1265      H1302   0.967       .  S
O1266     Zr1269   2.392       .  S
O1266     Zr1285   2.390       .  S
Zr1267     O1292   2.439       .  S
Zr1267     O1286   2.436       .  S
Zr1267     O1294   2.421       .  S
Zr1267     O1282   2.476       .  S
Zr1267     O1273   2.413       .  S
Zr1267     O1274   2.402       .  S
Zr1267     O1275   2.365       .  S
Zr1267     O1276   2.389       .  S
Zr1268     O1287   2.439       .  S
Zr1268     O1280   2.434       .  S
Zr1268     O1281   2.387       .  S
Zr1268     O1274   2.388       .  S
Zr1268     O1275   2.375       .  S
Zr1269     O1271   2.434       .  S
Zr1269     O1293   2.435       .  S
Zr1269     O1295   2.447       .  S
Zr1269     O1273   2.391       .  S
Zr1269     O1276   2.387       .  S
Zr1270     O1296   2.437       .  S
Zr1270     O1297   2.436       .  S
Zr1270     O1272   2.438       .  S
Zr1270     O1273   2.395       .  S
Zr1270     O1274   2.410       .  S
O1271      H1308   0.990       .  S
O1272      H1303   0.990       .  S
O1272      H1317   0.990       .  S
O1274      H1300   0.965       .  S
O1275     Zr1285   2.365       .  S
O1276     Zr1285   2.376       .  S
O1276      H1301   0.966       .  S
C1277      C3310   1.492       .  S
C1278      C3130   1.489       .  S
C1279      C3181   1.475       .  S
O1280      H1316   0.990       .  S
O1281      C1283   1.278       .  A
O1282      C1283   1.292       .  A
C1283      C3050   1.488   1_554  S
O1284     Zr1285   2.439       .  S
O1284      H1313   0.990       .  S
Zr1285     O1288   2.436       .  S
Zr1285     O1289   2.441       .  S
Zr1285     O1290   2.431       .  S
O1286      C1291   1.284       .  A
O1287      H1304   0.990       .  S
O1287      H1319   0.990       .  S
O1288      H1305   0.990       .  S
O1289      H1309   0.990       .  S
O1289      H1318   0.990       .  S
O1290      C1291   1.285       .  A
C1291      C3061   1.474       .  S
O1292      H1311   0.990       .  S
O1292      H1315   0.990       .  S
O1293      H1307   0.990       .  S
O1293      H1314   0.990       .  S
O1294      C1298   1.285       .  A
O1295      C1298   1.288       .  A
O1296      H1306   0.990       .  S
O1297      H1310   0.990       .  S
C1298      C4010   1.489       .  S
Zr1321     O1322   2.441       .  S
Zr1321     O1323   2.426       .  S
Zr1321     O1324   2.462       .  S
Zr1321     O1327   2.417       .  S
Zr1321     O1329   2.370       .  S
Zr1321     O1330   2.394       .  S
Zr1321     O1331   2.400       .  S
Zr1321     O1332   2.405       .  S
O1322      H1378   0.990       .  S
O1322      H1386   0.990       .  S
O1323      C1343   1.282       .  A
O1324      C1345   1.288       .  A
O1325     Zr1335   2.435       .  S
O1325      C1344   1.286       .  A
O1326     Zr1334   2.387       .  S
O1326      C1345   1.276       .  A
O1327      C1344   1.283       .  A
O1328     Zr1336   2.454       .  S
O1328      C1343   1.288       .  A
O1329     Zr1334   2.384       .  S
O1329     Zr1336   2.369       .  S
O1330     Zr1335   2.398       .  S
O1330     Zr1336   2.374       .  S
O1330      H1365   0.966       .  S
O1331     Zr1334   2.390       .  S
O1331     Zr1351   2.403       .  S
O1331      H1368   0.965       .  S
O1332     Zr1335   2.399       .  S
O1332     Zr1351   2.380       .  S
Zr1333     O1358   2.440       .  S
Zr1333     O1352   2.452       .  S
Zr1333     O1360   2.407       .  S
Zr1333     O1348   2.453       .  S
Zr1333     O1339   2.419       .  S
Zr1333     O1340   2.403       .  S
Zr1333     O1341   2.371       .  S
Zr1333     O1342   2.386       .  S
Zr1334     O1353   2.434       .  S
Zr1334     O1346   2.435       .  S
Zr1334     O1347   2.387       .  S
Zr1334     O1340   2.382       .  S
Zr1334     O1341   2.382       .  S
Zr1335     O1337   2.438       .  S
Zr1335     O1359   2.438       .  S
Zr1335     O1361   2.467       .  S
Zr1335     O1339   2.390       .  S
Zr1335     O1342   2.382       .  S
Zr1336     O1362   2.434       .  S
Zr1336     O1363   2.435       .  S
Zr1336     O1338   2.440       .  S
Zr1336     O1339   2.410       .  S
Zr1336     O1340   2.410       .  S
O1337      H1374   0.990       .  S
O1338      H1369   0.991       .  S
O1338      H1383   0.990       .  S
O1340      H1366   0.965       .  S
O1341     Zr1351   2.367       .  S
O1342     Zr1351   2.384       .  S
O1342      H1367   0.965       .  S
C1343      C4370   1.497       .  S
C1344      C3021   1.478       .  S
C1345      C4050   1.476       .  S
O1346      H1382   0.990       .  S
O1347      C1349   1.277       .  A
O1348      C1349   1.288       .  A
C1349      C2981   1.480       .  S
O1350     Zr1351   2.437       .  S
O1350      H1379   0.990       .  S
Zr1351     O1354   2.437       .  S
Zr1351     O1355   2.438       .  S
Zr1351     O1356   2.415       .  S
O1352      C1357   1.287       .  A
O1353      H1370   0.990       .  S
O1353      H1385   0.990       .  S
O1354      H1371   0.990       .  S
O1355      H1375   0.990       .  S
O1355      H1384   0.990       .  S
O1356      C1357   1.282       .  A
C1357      C3150   1.480       .  S
O1358      H1377   0.990       .  S
O1358      H1381   0.990       .  S
O1359      H1373   0.990       .  S
O1359      H1380   0.990       .  S
O1360      C1364   1.280       .  A
O1361      C1364   1.292       .  A
O1362      H1372   0.990       .  S
O1363      H1376   0.990       .  S
C1364      C3001   1.491       .  S
Zr1387     O1388   2.441       .  S
Zr1387     O1389   2.425       .  S
Zr1387     O1390   2.454       .  S
Zr1387     O1393   2.427       .  S
Zr1387     O1395   2.374       .  S
Zr1387     O1396   2.395       .  S
Zr1387     O1397   2.408       .  S
Zr1387     O1398   2.388       .  S
O1388      H1444   0.990       .  S
O1388      H1452   0.991       .  S
O1389      C1409   1.282       .  A
O1390      C1411   1.286       .  A
O1391     Zr1401   2.461       .  S
O1391      C1410   1.291       .  A
O1392     Zr1400   2.396       .  S
O1392      C1411   1.277       .  A
O1393      C1410   1.284       .  A
O1394     Zr1402   2.438       .  S
O1394      C1409   1.283       .  A
O1395     Zr1400   2.386       .  S
O1395     Zr1402   2.380       .  S
O1396     Zr1401   2.401       .  S
O1396     Zr1402   2.385       .  S
O1396      H1431   0.965       .  S
O1397     Zr1400   2.394       .  S
O1397     Zr1417   2.401       .  S
O1397      H1434   0.966       .  S
O1398     Zr1401   2.384       .  S
O1398     Zr1417   2.371       .  S
Zr1399     O1424   2.443       .  S
Zr1399     O1418   2.462       .  S
Zr1399     O1426   2.417       .  S
Zr1399     O1414   2.458       .  S
Zr1399     O1405   2.414       .  S
Zr1399     O1406   2.413       .  S
Zr1399     O1407   2.374       .  S
Zr1399     O1408   2.383       .  S
Zr1400     O1419   2.439       .  S
Zr1400     O1412   2.435       .  S
Zr1400     O1413   2.393       .  S
Zr1400     O1406   2.390       .  S
Zr1400     O1407   2.387       .  S
Zr1401     O1403   2.436       .  S
Zr1401     O1425   2.439       .  S
Zr1401     O1427   2.457       .  S
Zr1401     O1405   2.391       .  S
Zr1401     O1408   2.393       .  S
Zr1402     O1428   2.439       .  S
Zr1402     O1429   2.437       .  S
Zr1402     O1404   2.439       .  S
Zr1402     O1405   2.402       .  S
Zr1402     O1406   2.411       .  S
O1403      H1440   0.990       .  S
O1404      H1435   0.990       .  S
O1404      H1449   0.990       .  S
O1406      H1432   0.965       .  S
O1407     Zr1417   2.371       .  S
O1408     Zr1417   2.376       .  S
O1408      H1433   0.966       .  S
C1409      C4181   1.490       .  S
C1410      C3030   1.488       .  S
C1411      C4130   1.478       .  S
O1412      H1448   0.990       .  S
O1413      C1415   1.278       .  A
O1414      C1415   1.289       .  A
C1415      C3041   1.483       .  S
O1416     Zr1417   2.440       .  S
O1416      H1445   0.991       .  S
Zr1417     O1420   2.437       .  S
Zr1417     O1421   2.440       .  S
Zr1417     O1422   2.415       .  S
O1418      C1423   1.289       .  A
O1419      H1436   0.990       .  S
O1419      H1451   0.990       .  S
O1420      H1437   0.990       .  S
O1421      H1441   0.990       .  S
O1421      H1450   0.990       .  S
O1422      C1423   1.282       .  A
C1423      C2961   1.490       .  S
O1424      H1443   0.990       .  S
O1424      H1447   0.990       .  S
O1425      H1439   0.990       .  S
O1425      H1446   0.990       .  S
O1426      C1430   1.283       .  A
O1427      C1430   1.289       .  A
O1428      H1438   0.990       .  S
O1429      H1442   0.990       .  S
C1430      C3201   1.494       .  S
Zr1453     O1454   2.437       .  S
Zr1453     O1455   2.432       .  S
Zr1453     O1456   2.455       .  S
Zr1453     O1459   2.420       .  S
Zr1453     O1461   2.371       .  S
Zr1453     O1462   2.392       .  S
Zr1453     O1463   2.401       .  S
Zr1453     O1464   2.397       .  S
O1454      H1510   0.990       .  S
O1454      H1518   0.990       .  S
O1455      C1475   1.284       .  A
O1456      C1477   1.287       .  A
O1457     Zr1467   2.440   1_556  S
O1457      C1476   1.287       .  A
O1458     Zr1466   2.383       .  S
O1458      C1477   1.276       .  A
O1459      C1476   1.283   1_554  A
O1460     Zr1468   2.442       .  S
O1460      C1475   1.286       .  A
O1461     Zr1466   2.384       .  S
O1461     Zr1468   2.372       .  S
O1462     Zr1467   2.397       .  S
O1462     Zr1468   2.379       .  S
O1462      H1497   0.965       .  S
O1463     Zr1466   2.389       .  S
O1463     Zr1483   2.399       .  S
O1463      H1500   0.966       .  S
O1464     Zr1467   2.390       .  S
O1464     Zr1483   2.381       .  S
Zr1465     O1490   2.443       .  S
Zr1465     O1484   2.449       .  S
Zr1465     O1492   2.417       .  S
Zr1465     O1480   2.449       .  S
Zr1465     O1471   2.411       .  S
Zr1465     O1472   2.407       .  S
Zr1465     O1473   2.370       .  S
Zr1465     O1474   2.384       .  S
Zr1466     O1485   2.441       .  S
Zr1466     O1478   2.434       .  S
Zr1466     O1479   2.388       .  S
Zr1466     O1472   2.381       .  S
Zr1466     O1473   2.379       .  S
Zr1467     O1469   2.436   1_554  S
Zr1467     O1491   2.438   1_554  S
Zr1467     O1493   2.456       .  S
Zr1467     O1471   2.389       .  S
Zr1467     O1474   2.384       .  S
Zr1468     O1494   2.439       .  S
Zr1468     O1495   2.435       .  S
Zr1468     O1470   2.437       .  S
Zr1468     O1471   2.401       .  S
Zr1468     O1472   2.412       .  S
O1469      H1506   0.990       .  S
O1470      H1501   0.990       .  S
O1470      H1515   0.990       .  S
O1472      H1498   0.966       .  S
O1473     Zr1483   2.364       .  S
O1474     Zr1483   2.383       .  S
O1474      H1499   0.966       .  S
C1475      C2901   1.495       .  S
C1476      C2930   1.488       .  S
C1477      C2941   1.480       .  S
O1478      H1514   0.990       .  S
O1479      C1481   1.277       .  A
O1480      C1481   1.287       .  A
C1481      C2990   1.474       .  S
O1482     Zr1483   2.440       .  S
O1482      H1511   0.990       .  S
Zr1483     O1486   2.441       .  S
Zr1483     O1487   2.437       .  S
Zr1483     O1488   2.428       .  S
O1484      C1489   1.287       .  A
O1485      H1502   0.990       .  S
O1485      H1517   0.990       .  S
O1486      H1503   0.990       .  S
O1487      H1507   0.990       .  S
O1487      H1516   0.990       .  S
O1488      C1489   1.285       .  A
C1489      C3070   1.481       .  S
O1490      H1509   0.990       .  S
O1490      H1513   0.990       .  S
O1491      H1505   0.990       .  S
O1491      H1512   0.990       .  S
O1492      C1496   1.283       .  A
O1493      C1496   1.289       .  A
O1494      H1504   0.990       .  S
O1495      H1508   0.990       .  S
C1496      C4070   1.485       .  S
Zr1519     O1520   2.438       .  S
Zr1519     O1521   2.425       .  S
Zr1519     O1522   2.469       .  S
Zr1519     O1525   2.433       .  S
Zr1519     O1527   2.373       .  S
Zr1519     O1528   2.396       .  S
Zr1519     O1529   2.400       .  S
Zr1519     O1530   2.406       .  S
O1520      H1576   0.990       .  S
O1520      H1584   0.990       .  S
O1521      C1541   1.282       .  A
O1522      C1543   1.289       .  A
O1523     Zr1533   2.437       .  S
O1523      C1542   1.286       .  A
O1524     Zr1532   2.403       .  S
O1524      C1543   1.277       .  A
O1525      C1542   1.285       .  A
O1526     Zr1534   2.436       .  S
O1526      C1541   1.284       .  A
O1527     Zr1532   2.379       .  S
O1527     Zr1534   2.375       .  S
O1528     Zr1533   2.400       .  S
O1528     Zr1534   2.382       .  S
O1528      H1563   0.966       .  S
O1529     Zr1532   2.391       .  S
O1529     Zr1549   2.400       .  S
O1529      H1566   0.965       .  S
O1530     Zr1533   2.401       .  S
O1530     Zr1549   2.387       .  S
Zr1531     O1556   2.444       .  S
Zr1531     O1550   2.459       .  S
Zr1531     O1558   2.427       .  S
Zr1531     O1546   2.454       .  S
Zr1531     O1537   2.413       .  S
Zr1531     O1538   2.414       .  S
Zr1531     O1539   2.378       .  S
Zr1531     O1540   2.388       .  S
Zr1532     O1551   2.436       .  S
Zr1532     O1544   2.440       .  S
Zr1532     O1545   2.376       .  S
Zr1532     O1538   2.389       .  S
Zr1532     O1539   2.387       .  S
Zr1533     O1535   2.435       .  S
Zr1533     O1557   2.437       .  S
Zr1533     O1559   2.464       .  S
Zr1533     O1537   2.391       .  S
Zr1533     O1540   2.387       .  S
Zr1534     O1560   2.435       .  S
Zr1534     O1561   2.436       .  S
Zr1534     O1536   2.439       .  S
Zr1534     O1537   2.406       .  S
Zr1534     O1538   2.402       .  S
O1535      H1572   0.990       .  S
O1536      H1567   0.990       .  S
O1536      H1581   0.990       .  S
O1538      H1564   0.966       .  S
O1539     Zr1549   2.370       .  S
O1540     Zr1549   2.384       .  S
O1540      H1565   0.965       .  S
C1541      C2870   1.490       .  S
C1542      C2921   1.485       .  S
C1543      C2890   1.477       .  S
O1544      H1580   0.990       .  S
O1545      C1547   1.276       .  A
O1546      C1547   1.288       .  A
C1547      C3090   1.479       .  S
O1548     Zr1549   2.442       .  S
O1548      H1577   0.991       .  S
Zr1549     O1552   2.438       .  S
Zr1549     O1553   2.442       .  S
Zr1549     O1554   2.422       .  S
O1550      C1555   1.289       .  A
O1551      H1568   0.990       .  S
O1551      H1583   0.990       .  S
O1552      H1569   0.990       .  S
O1553      H1573   0.990       .  S
O1553      H1582   0.990       .  S
O1554      C1555   1.283       .  A
C1555      C2970   1.480       .  S
O1556      H1575   0.990       .  S
O1556      H1579   0.990       .  S
O1557      H1571   0.990       .  S
O1557      H1578   0.990       .  S
O1558      C1562   1.284       .  A
O1559      C1562   1.291       .  A
O1560      H1570   0.990       .  S
O1561      H1574   0.990       .  S
C1562      C3170   1.497       .  S
Zr1585     O1586   2.444       .  S
Zr1585     O1587   2.426       .  S
Zr1585     O1588   2.461       .  S
Zr1585     O1591   2.435       .  S
Zr1585     O1593   2.372       .  S
Zr1585     O1594   2.399       .  S
Zr1585     O1595   2.403       .  S
Zr1585     O1596   2.397       .  S
O1586      H1642   0.990       .  S
O1586      H1650   0.991       .  S
O1587      C1607   1.283       .  A
O1588      C1609   1.287       .  A
O1589     Zr1599   2.446       .  S
O1589      C1608   1.288       .  A
O1590     Zr1598   2.389       .  S
O1590      C1609   1.276       .  A
O1591      C1608   1.286       .  A
O1592     Zr1600   2.435       .  S
O1592      C1607   1.283       .  A
O1593     Zr1598   2.384       .  S
O1593     Zr1600   2.371       .  S
O1594     Zr1599   2.407       .  S
O1594     Zr1600   2.385       .  S
O1594      H1629   0.966       .  S
O1595     Zr1598   2.388       .  S
O1595     Zr1615   2.400       .  S
O1595      H1632   0.966       .  S
O1596     Zr1599   2.391       .  S
O1596     Zr1615   2.370       .  S
Zr1597     O1622   2.446       .  S
Zr1597     O1616   2.458       .  S
Zr1597     O1624   2.422       .  S
Zr1597     O1612   2.467       .  S
Zr1597     O1603   2.418       .  S
Zr1597     O1604   2.409       .  S
Zr1597     O1605   2.379       .  S
Zr1597     O1606   2.386       .  S
Zr1598     O1617   2.433       .  S
Zr1598     O1610   2.436       .  S
Zr1598     O1611   2.399       .  S
Zr1598     O1604   2.384       .  S
Zr1598     O1605   2.386       .  S
Zr1599     O1601   2.437       .  S
Zr1599     O1623   2.439       .  S
Zr1599     O1625   2.474       .  S
Zr1599     O1603   2.389       .  S
Zr1599     O1606   2.379       .  S
Zr1600     O1626   2.436       .  S
Zr1600     O1627   2.432       .  S
Zr1600     O1602   2.438       .  S
Zr1600     O1603   2.402       .  S
Zr1600     O1604   2.407       .  S
O1601      H1638   0.990       .  S
O1602      H1633   0.990       .  S
O1602      H1647   0.990       .  S
O1604      H1630   0.966       .  S
O1605     Zr1615   2.378       .  S
O1606     Zr1615   2.383       .  S
O1606      H1631   0.965       .  S
C1607      C2790   1.489       .  S
C1608      C2801   1.479       .  S
C1609      C2850   1.481       .  S
O1610      H1646   0.990       .  S
O1611      C1613   1.279       .  A
O1612      C1613   1.290       .  A
C1613      C2761   1.493   1_554  S
O1614     Zr1615   2.441       .  S
O1614      H1643   0.990       .  S
Zr1615     O1618   2.435       .  S
Zr1615     O1619   2.440       .  S
Zr1615     O1620   2.422       .  S
O1616      C1621   1.289       .  A
O1617      H1634   0.989       .  S
O1617      H1649   0.990       .  S
O1618      H1635   0.990       .  S
O1619      H1639   0.990       .  S
O1619      H1648   0.990       .  S
O1620      C1621   1.284       .  A
C1621      C2821   1.476       .  S
O1622      H1641   0.990       .  S
O1622      H1645   0.990       .  S
O1623      H1637   0.990       .  S
O1623      H1644   0.990       .  S
O1624      C1628   1.283       .  A
O1625      C1628   1.292       .  A
O1626      H1636   0.990       .  S
O1627      H1640   0.990       .  S
C1628      C3330   1.503       .  S
Zr1651     O1652   2.444       .  S
Zr1651     O1653   2.433       .  S
Zr1651     O1654   2.452       .  S
Zr1651     O1657   2.427       .  S
Zr1651     O1659   2.377       .  S
Zr1651     O1660   2.391       .  S
Zr1651     O1661   2.408       .  S
Zr1651     O1662   2.399       .  S
O1652      H1708   0.990       .  S
O1652      H1716   0.991       .  S
O1653      C1673   1.284       .  A
O1654      C1675   1.285       .  A
O1655     Zr1665   2.421       .  S
O1655      C1674   1.283       .  A
O1656     Zr1664   2.384       .  S
O1656      C1675   1.276       .  A
O1657      C1674   1.285       .  A
O1658     Zr1666   2.443       .  S
O1658      C1673   1.286       .  A
O1659     Zr1664   2.386       .  S
O1659     Zr1666   2.372       .  S
O1660     Zr1665   2.395       .  S
O1660     Zr1666   2.376       .  S
O1660      H1695   0.966       .  S
O1661     Zr1664   2.393       .  S
O1661     Zr1681   2.401       .  S
O1661      H1698   0.966       .  S
O1662     Zr1665   2.394       .  S
O1662     Zr1681   2.383       .  S
Zr1663     O1688   2.443       .  S
Zr1663     O1682   2.457       .  S
Zr1663     O1690   2.409       .  S
Zr1663     O1678   2.455       .  S
Zr1663     O1669   2.415       .  S
Zr1663     O1670   2.407       .  S
Zr1663     O1671   2.375       .  S
Zr1663     O1672   2.382       .  S
Zr1664     O1683   2.435       .  S
Zr1664     O1676   2.436       .  S
Zr1664     O1677   2.395       .  S
Zr1664     O1670   2.380       .  S
Zr1664     O1671   2.386       .  S
Zr1665     O1667   2.435       .  S
Zr1665     O1689   2.438       .  S
Zr1665     O1691   2.445       .  S
Zr1665     O1669   2.384       .  S
Zr1665     O1672   2.385       .  S
Zr1666     O1692   2.438       .  S
Zr1666     O1693   2.435       .  S
Zr1666     O1668   2.434       .  S
Zr1666     O1669   2.401       .  S
Zr1666     O1670   2.406       .  S
O1667      H1704   0.990       .  S
O1668      H1699   0.990       .  S
O1668      H1713   0.990       .  S
O1670      H1696   0.965       .  S
O1671     Zr1681   2.376       .  S
O1672     Zr1681   2.375       .  S
O1672      H1697   0.965       .  S
C1673      C2701   1.497       .  S
C1674      C2810   1.477       .  S
C1675      C2721   1.478       .  S
O1676      H1712   0.990       .  S
O1677      C1679   1.277       .  A
O1678      C1679   1.288       .  A
C1679      C2681   1.481       .  S
O1680     Zr1681   2.433       .  S
O1680      H1709   0.990       .  S
Zr1681     O1684   2.432       .  S
Zr1681     O1685   2.438       .  S
Zr1681     O1686   2.425       .  S
O1682      C1687   1.288       .  A
O1683      H1700   0.990       .  S
O1683      H1715   0.990       .  S
O1684      H1701   0.989       .  S
O1685      H1705   0.990       .  S
O1685      H1714   0.990       .  S
O1686      C1687   1.282       .  A
C1687      C2750   1.477       .  S
O1688      H1707   0.990       .  S
O1688      H1711   0.990       .  S
O1689      H1703   0.990       .  S
O1689      H1710   0.990       .  S
O1690      C1694   1.282       .  A
O1691      C1694   1.288       .  A
O1692      H1702   0.990       .  S
O1693      H1706   0.990       .  S
C1694      C4450   1.487       .  S
Zr1717     O1718   2.442       .  S
Zr1717     O1719   2.423       .  S
Zr1717     O1720   2.459       .  S
Zr1717     O1723   2.418       .  S
Zr1717     O1725   2.367       .  S
Zr1717     O1726   2.398       .  S
Zr1717     O1727   2.398       .  S
Zr1717     O1728   2.395       .  S
O1718      H1774   0.990       .  S
O1718      H1782   0.990       .  S
O1719      C1739   1.283       .  A
O1720      C1741   1.287       .  A
O1721     Zr1731   2.435   1_556  S
O1721      C1740   1.286       .  A
O1722     Zr1730   2.377       .  S
O1722      C1741   1.273       .  A
O1723      C1740   1.282   1_554  A
O1724     Zr1732   2.446       .  S
O1724      C1739   1.286       .  A
O1725     Zr1730   2.378       .  S
O1725     Zr1732   2.369       .  S
O1726     Zr1731   2.397       .  S
O1726     Zr1732   2.380       .  S
O1726      H1761   0.966       .  S
O1727     Zr1730   2.392       .  S
O1727     Zr1747   2.405       .  S
O1727      H1764   0.966       .  S
O1728     Zr1731   2.393       .  S
O1728     Zr1747   2.379       .  S
Zr1729     O1754   2.444   1_545  S
Zr1729     O1748   2.462   1_545  S
Zr1729     O1756   2.423   1_545  S
Zr1729     O1744   2.468       .  S
Zr1729     O1735   2.420       .  S
Zr1729     O1736   2.413       .  S
Zr1729     O1737   2.372       .  S
Zr1729     O1738   2.390       .  S
Zr1730     O1749   2.437       .  S
Zr1730     O1742   2.434       .  S
Zr1730     O1743   2.375       .  S
Zr1730     O1736   2.382       .  S
Zr1730     O1737   2.380       .  S
Zr1731     O1733   2.439   1_554  S
Zr1731     O1755   2.438   1_554  S
Zr1731     O1757   2.452       .  S
Zr1731     O1735   2.389       .  S
Zr1731     O1738   2.382       .  S
Zr1732     O1758   2.436       .  S
Zr1732     O1759   2.436       .  S
Zr1732     O1734   2.437       .  S
Zr1732     O1735   2.399       .  S
Zr1732     O1736   2.408       .  S
O1733      H1770   0.990       .  S
O1734      H1765   0.990       .  S
O1734      H1779   0.990       .  S
O1736      H1762   0.965       .  S
O1737     Zr1747   2.368       .  S
O1738     Zr1747   2.382       .  S
O1738      H1763   0.965       .  S
C1739      C4090   1.493       .  S
C1740      C2670   1.479       .  S
C1741      C4530   1.469       .  S
O1742      H1778   0.990       .  S
O1743      C1745   1.275       .  A
O1744      C1745   1.290       .  A
C1745      C2641   1.488       .  S
O1746     Zr1747   2.435       .  S
O1746      H1775   0.990       .  S
Zr1747     O1750   2.436       .  S
Zr1747     O1751   2.435       .  S
Zr1747     O1752   2.423       .  S
O1748      C1753   1.289   1_565  A
O1749      H1766   0.990       .  S
O1749      H1781   0.990       .  S
O1750      H1767   0.990       .  S
O1751      H1771   0.990       .  S
O1751      H1780   0.990       .  S
O1752      C1753   1.284       .  A
C1753      C2830   1.482   1_545  S
O1754      H1773   0.990       .  S
O1754      H1777   0.990   1_565  S
O1755      H1769   0.990       .  S
O1755      H1776   0.990       .  S
O1756      C1760   1.284       .  A
O1757      C1760   1.289   1_545  A
O1758      H1768   0.990       .  S
O1759      H1772   0.990       .  S
C1760      C3370   1.493       .  S
Zr1783     O1784   2.441       .  S
Zr1783     O1785   2.425       .  S
Zr1783     O1786   2.455       .  S
Zr1783     O1789   2.434       .  S
Zr1783     O1791   2.373       .  S
Zr1783     O1792   2.396       .  S
Zr1783     O1793   2.403       .  S
Zr1783     O1794   2.397       .  S
O1784      H1840   0.990       .  S
O1784      H1848   0.990       .  S
O1785      C1805   1.282       .  A
O1786      C1807   1.287       .  A
O1787     Zr1797   2.433       .  S
O1787      C1806   1.286       .  A
O1788     Zr1796   2.393       .  S
O1788      C1807   1.276       .  A
O1789      C1806   1.285       .  A
O1790     Zr1798   2.468       .  S
O1790      C1805   1.290       .  A
O1791     Zr1796   2.389       .  S
O1791     Zr1798   2.374       .  S
O1792     Zr1797   2.402       .  S
O1792     Zr1798   2.378       .  S
O1792      H1827   0.965       .  S
O1793     Zr1796   2.397       .  S
O1793     Zr1813   2.396       .  S
O1793      H1830   0.965       .  S
O1794     Zr1797   2.401       .  S
O1794     Zr1813   2.385       .  S
Zr1795     O1820   2.443       .  S
Zr1795     O1814   2.450       .  S
Zr1795     O1822   2.411       .  S
Zr1795     O1810   2.444       .  S
Zr1795     O1801   2.414       .  S
Zr1795     O1802   2.413       .  S
Zr1795     O1803   2.366       .  S
Zr1795     O1804   2.382       .  S
Zr1796     O1815   2.438       .  S
Zr1796     O1808   2.433       .  S
Zr1796     O1809   2.408       .  S
Zr1796     O1802   2.387       .  S
Zr1796     O1803   2.379       .  S
Zr1797     O1799   2.435       .  S
Zr1797     O1821   2.434       .  S
Zr1797     O1823   2.472       .  S
Zr1797     O1801   2.384       .  S
Zr1797     O1804   2.382       .  S
Zr1798     O1824   2.440       .  S
Zr1798     O1825   2.438       .  S
Zr1798     O1800   2.435       .  S
Zr1798     O1801   2.407       .  S
Zr1798     O1802   2.420       .  S
O1799      H1836   0.990       .  S
O1800      H1831   0.991       .  S
O1800      H1845   0.990       .  S
O1802      H1828   0.965       .  S
O1803     Zr1813   2.368       .  S
O1804     Zr1813   2.380       .  S
O1804      H1829   0.965       .  S
C1805      C4241   1.504       .  S
C1806      C2661   1.483       .  S
C1807      C4390   1.479       .  S
O1808      H1844   0.990       .  S
O1809      C1811   1.279       .  A
O1810      C1811   1.285       .  A
C1811      C2690   1.463       .  S
O1812     Zr1813   2.439       .  S
O1812      H1841   0.990       .  S
Zr1813     O1816   2.440       .  S
Zr1813     O1817   2.438       .  S
Zr1813     O1818   2.416       .  S
O1814      C1819   1.287       .  A
O1815      H1832   0.990       .  S
O1815      H1847   0.990       .  S
O1816      H1833   0.990       .  S
O1817      H1837   0.990       .  S
O1817      H1846   0.990       .  S
O1818      C1819   1.281       .  A
C1819      C2630   1.472       .  S
O1820      H1839   0.990       .  S
O1820      H1843   0.990       .  S
O1821      H1835   0.990       .  S
O1821      H1842   0.990       .  S
O1822      C1826   1.282       .  A
O1823      C1826   1.292       .  A
O1824      H1834   0.990       .  S
O1825      H1838   0.991       .  S
C1826      C2610   1.499       .  S
Zr1849     O1850   2.440       .  S
Zr1849     O1851   2.417       .  S
Zr1849     O1852   2.454       .  S
Zr1849     O1855   2.431       .  S
Zr1849     O1857   2.375       .  S
Zr1849     O1858   2.394       .  S
Zr1849     O1859   2.404       .  S
Zr1849     O1860   2.398       .  S
O1850      H1906   0.990       .  S
O1850      H1914   0.990       .  S
O1851      C1871   1.281       .  A
O1852      C1873   1.286       .  A
O1853     Zr1863   2.447       .  S
O1853      C1872   1.289       .  A
O1854     Zr1862   2.390       .  S
O1854      C1873   1.277       .  A
O1855      C1872   1.285       .  A
O1856     Zr1864   2.441       .  S
O1856      C1871   1.284       .  A
O1857     Zr1862   2.385       .  S
O1857     Zr1864   2.376       .  S
O1858     Zr1863   2.395       .  S
O1858     Zr1864   2.375       .  S
O1858      H1893   0.966       .  S
O1859     Zr1862   2.393       .  S
O1859     Zr1879   2.401       .  S
O1859      H1896   0.966       .  S
O1860     Zr1863   2.395       .  S
O1860     Zr1879   2.384       .  S
Zr1861     O1886   2.445   1_565  S
Zr1861     O1880   2.454   1_565  S
Zr1861     O1888   2.411   1_565  S
Zr1861     O1876   2.450       .  S
Zr1861     O1867   2.416       .  S
Zr1861     O1868   2.411       .  S
Zr1861     O1869   2.368       .  S
Zr1861     O1870   2.388       .  S
Zr1862     O1881   2.440       .  S
Zr1862     O1874   2.435       .  S
Zr1862     O1875   2.390       .  S
Zr1862     O1868   2.387       .  S
Zr1862     O1869   2.382       .  S
Zr1863     O1865   2.434       .  S
Zr1863     O1887   2.440       .  S
Zr1863     O1889   2.462   1_565  S
Zr1863     O1867   2.387       .  S
Zr1863     O1870   2.396       .  S
Zr1864     O1890   2.439       .  S
Zr1864     O1891   2.434       .  S
Zr1864     O1866   2.434       .  S
Zr1864     O1867   2.398       .  S
Zr1864     O1868   2.412       .  S
O1865      H1902   0.990       .  S
O1866      H1897   0.990       .  S
O1866      H1911   0.990       .  S
O1868      H1894   0.966       .  S
O1869     Zr1879   2.367       .  S
O1870     Zr1879   2.384       .  S
O1870      H1895   0.966       .  S
C1871      C3470   1.490       .  S
C1872      C2581   1.491       .  S
C1873      C3341   1.481       .  S
O1874      H1910   0.990       .  S
O1875      C1877   1.277       .  A
O1876      C1877   1.287       .  A
C1877      C2650   1.469       .  S
O1878     Zr1879   2.438       .  S
O1878      H1907   0.990       .  S
Zr1879     O1882   2.440       .  S
Zr1879     O1883   2.439       .  S
Zr1879     O1884   2.425       .  S
O1880      C1885   1.287       .  A
O1881      H1898   0.990       .  S
O1881      H1913   0.990       .  S
O1882      H1899   0.990       .  S
O1883      H1903   0.990       .  S
O1883      H1912   0.990       .  S
O1884      C1885   1.283   1_565  A
C1885      C2741   1.480       .  S
O1886      H1905   0.990       .  S
O1886      H1909   0.990       .  S
O1887      H1901   0.990       .  S
O1887      H1908   0.990       .  S
O1888      C1892   1.281       .  A
O1889      C1892   1.290       .  A
O1890      H1900   0.990       .  S
O1891      H1904   0.990       .  S
C1892      C4350   1.487       .  S
Zr1915     O1916   2.440       .  S
Zr1915     O1917   2.421       .  S
Zr1915     O1918   2.457       .  S
Zr1915     O1921   2.436       .  S
Zr1915     O1923   2.377       .  S
Zr1915     O1924   2.394       .  S
Zr1915     O1925   2.402       .  S
Zr1915     O1926   2.397       .  S
O1916      H1972   0.990       .  S
O1916      H1980   0.990       .  S
O1917      C1937   1.280       .  A
O1918      C1939   1.287       .  A
O1919     Zr1929   2.430       .  S
O1919      C1938   1.284       .  A
O1920     Zr1928   2.397       .  S
O1920      C1939   1.278       .  A
O1921      C1938   1.286       .  A
O1922     Zr1930   2.447       .  S
O1922      C1937   1.287       .  A
O1923     Zr1928   2.385       .  S
O1923     Zr1930   2.374       .  S
O1924     Zr1929   2.399       .  S
O1924     Zr1930   2.379       .  S
O1924      H1959   0.965       .  S
O1925     Zr1928   2.393       .  S
O1925     Zr1945   2.391       .  S
O1925      H1962   0.966       .  S
O1926     Zr1929   2.391       .  S
O1926     Zr1945   2.379       .  S
Zr1927     O1952   2.444       .  S
Zr1927     O1946   2.449       .  S
Zr1927     O1954   2.422       .  S
Zr1927     O1942   2.456       .  S
Zr1927     O1933   2.417       .  S
Zr1927     O1934   2.406       .  S
Zr1927     O1935   2.369       .  S
Zr1927     O1936   2.382       .  S
Zr1928     O1947   2.439       .  S
Zr1928     O1940   2.439       .  S
Zr1928     O1941   2.387       .  S
Zr1928     O1934   2.391       .  S
Zr1928     O1935   2.382       .  S
Zr1929     O1931   2.437       .  S
Zr1929     O1953   2.437       .  S
Zr1929     O1955   2.449       .  S
Zr1929     O1933   2.393       .  S
Zr1929     O1936   2.386       .  S
Zr1930     O1956   2.434       .  S
Zr1930     O1957   2.439       .  S
Zr1930     O1932   2.440       .  S
Zr1930     O1933   2.408       .  S
Zr1930     O1934   2.407       .  S
O1931      H1968   0.990       .  S
O1932      H1963   0.990       .  S
O1932      H1977   0.990       .  S
O1934      H1960   0.965       .  S
O1935     Zr1945   2.368       .  S
O1936     Zr1945   2.382       .  S
O1936      H1961   0.965       .  S
C1937      C3230   1.496       .  S
C1938      C2590   1.489       .  S
C1939      C3421   1.485       .  S
O1940      H1976   0.990       .  S
O1941      C1943   1.276       .  A
O1942      C1943   1.289       .  A
C1943      C2770   1.473       .  S
O1944     Zr1945   2.436       .  S
O1944      H1973   0.990       .  S
Zr1945     O1948   2.438       .  S
Zr1945     O1949   2.437       .  S
Zr1945     O1950   2.405       .  S
O1946      C1951   1.287       .  A
O1947      H1964   0.990       .  S
O1947      H1979   0.990       .  S
O1948      H1965   0.990       .  S
O1949      H1969   0.990       .  S
O1949      H1978   0.990       .  S
O1950      C1951   1.279       .  A
C1951      C2621   1.472       .  S
O1952      H1971   0.990       .  S
O1952      H1975   0.990       .  S
O1953      H1967   0.990       .  S
O1953      H1974   0.990       .  S
O1954      C1958   1.284       .  A
O1955      C1958   1.288       .  A
O1956      H1966   0.990       .  S
O1957      H1970   0.990       .  S
C1958      C2561   1.490       .  S
Zr1981     O1982   2.446       .  S
Zr1981     O1983   2.455       .  S
Zr1981     O1984   2.426       .  S
Zr1981     O1987   2.447       .  S
Zr1981     O1989   2.393       .  S
Zr1981     O1990   2.377       .  S
Zr1981     O1991   2.418       .  S
Zr1981     O1992   2.404       .  S
O1982      H2038   0.990       .  S
O1982      H2046   0.991       .  S
O1983      C2003   1.287       .  A
O1984      C2005   1.282   1_556  A
O1985     Zr1995   2.395       .  S
O1985      C2004   1.278       .  A
O1986     Zr1994   2.451   1_554  S
O1986      C2005   1.289       .  A
O1987      C2004   1.286       .  A
O1988     Zr1996   2.427       .  S
O1988      C2003   1.282       .  A
O1989     Zr1994   2.408       .  S
O1989     Zr1996   2.381       .  S
O1990     Zr1995   2.389       .  S
O1990     Zr1996   2.370       .  S
O1990      H2025   0.966       .  S
O1991     Zr1994   2.412       .  S
O1991     Zr2011   2.384       .  S
O1991      H2028   0.964       .  S
O1992     Zr1995   2.384       .  S
O1992     Zr2011   2.395       .  S
Zr1993     O2018   2.441   1_565  S
Zr1993     O2012   2.476   1_565  S
Zr1993     O2020   2.454       .  S
Zr1993     O2008   2.430   1_565  S
Zr1993     O1999   2.409       .  S
Zr1993     O2000   2.424       .  S
Zr1993     O2001   2.379       .  S
Zr1993     O2002   2.378       .  S
Zr1994     O2013   2.435   1_556  S
Zr1994     O2006   2.435   1_556  S
Zr1994     O2007   2.464   1_565  S
Zr1994     O2000   2.403       .  S
Zr1994     O2001   2.389       .  S
Zr1995     O1997   2.434       .  S
Zr1995     O2019   2.436       .  S
Zr1995     O2021   2.406       .  S
Zr1995     O1999   2.383       .  S
Zr1995     O2002   2.385       .  S
Zr1996     O2022   2.437       .  S
Zr1996     O2023   2.435       .  S
Zr1996     O1998   2.436       .  S
Zr1996     O1999   2.399       .  S
Zr1996     O2000   2.402       .  S
O1997      H2034   0.990       .  S
O1998      H2029   0.991       .  S
O1998      H2043   0.990       .  S
O2000      H2026   0.965       .  S
O2001     Zr2011   2.377       .  S
O2002     Zr2011   2.379       .  S
O2002      H2027   0.965       .  S
C2003      C3670   1.497       .  S
C2004      C3990   1.470       .  S
C2005      C2541   1.485       .  S
O2006      H2042   0.990       .  S
O2007      C2009   1.291       .  A
O2008      C2009   1.284       .  A
C2009      C2910   1.497       .  S
O2010     Zr2011   2.440       .  S
O2010      H2039   0.990       .  S
Zr2011     O2014   2.439       .  S
Zr2011     O2015   2.442       .  S
Zr2011     O2016   2.415       .  S
O2012      C2017   1.291       .  A
O2013      H2030   0.990       .  S
O2013      H2045   0.990       .  S
O2014      H2031   0.990       .  S
O2015      H2035   0.990       .  S
O2015      H2044   0.990       .  S
O2016      C2017   1.281   1_565  A
C2017      C2521   1.485       .  S
O2018      H2037   0.990       .  S
O2018      H2041   0.990       .  S
O2019      H2033   0.990       .  S
O2019      H2040   0.990       .  S
O2020      C2024   1.289       .  A
O2021      C2024   1.280       .  A
O2022      H2032   0.990       .  S
O2023      H2036   0.990       .  S
C2024      C2501   1.483       .  S
Zr2047     O2048   2.442       .  S
Zr2047     O2049   2.437       .  S
Zr2047     O2050   2.460       .  S
Zr2047     O2053   2.441       .  S
Zr2047     O2055   2.387       .  S
Zr2047     O2056   2.387       .  S
Zr2047     O2057   2.413       .  S
Zr2047     O2058   2.406       .  S
O2048      H2104   0.990       .  S
O2048      H2112   0.990       .  S
O2049      C2069   1.284       .  A
O2050      C2071   1.289       .  A
O2051     Zr2061   2.395       .  S
O2051      C2070   1.278       .  A
O2052     Zr2060   2.439       .  S
O2052      C2071   1.286       .  A
O2053      C2070   1.287       .  A
O2054     Zr2062   2.432       .  S
O2054      C2069   1.284       .  A
O2055     Zr2060   2.404       .  S
O2055     Zr2062   2.383       .  S
O2056     Zr2061   2.387       .  S
O2056     Zr2062   2.371       .  S
O2056      H2091   0.966       .  S
O2057     Zr2060   2.408       .  S
O2057     Zr2077   2.387       .  S
O2057      H2094   0.965       .  S
O2058     Zr2061   2.390       .  S
O2058     Zr2077   2.391       .  S
Zr2059     O2084   2.441       .  S
Zr2059     O2078   2.442       .  S
Zr2059     O2086   2.463       .  S
Zr2059     O2074   2.408       .  S
Zr2059     O2065   2.402       .  S
Zr2059     O2066   2.418       .  S
Zr2059     O2067   2.385       .  S
Zr2059     O2068   2.374       .  S
Zr2060     O2079   2.437       .  S
Zr2060     O2072   2.431       .  S
Zr2060     O2073   2.456       .  S
Zr2060     O2066   2.404       .  S
Zr2060     O2067   2.394       .  S
Zr2061     O2063   2.435       .  S
Zr2061     O2085   2.435       .  S
Zr2061     O2087   2.407       .  S
Zr2061     O2065   2.380       .  S
Zr2061     O2068   2.386       .  S
Zr2062     O2088   2.435       .  S
Zr2062     O2089   2.434       .  S
Zr2062     O2064   2.437       .  S
Zr2062     O2065   2.408       .  S
Zr2062     O2066   2.388       .  S
O2063      H2100   0.990       .  S
O2064      H2095   0.990       .  S
O2064      H2109   0.990       .  S
O2066      H2092   0.965       .  S
O2067     Zr2077   2.377       .  S
O2068     Zr2077   2.370       .  S
O2068      H2093   0.966       .  S
C2069      C3610   1.490       .  S
C2070      C3870   1.480       .  S
C2071      C2550   1.497       .  S
O2072      H2108   0.990       .  S
O2073      C2075   1.289       .  A
O2074      C2075   1.281       .  A
C2075      C2781   1.482       .  S
O2076     Zr2077   2.436       .  S
O2076      H2105   0.990       .  S
Zr2077     O2080   2.435       .  S
Zr2077     O2081   2.438       .  S
Zr2077     O2082   2.426       .  S
O2078      C2083   1.286       .  A
O2079      H2096   0.990       .  S
O2079      H2111   0.990       .  S
O2080      H2097   0.990       .  S
O2081      H2101   0.990       .  S
O2081      H2110   0.990       .  S
O2082      C2083   1.283       .  A
C2083      C2481   1.479       .  S
O2084      H2103   0.990       .  S
O2084      H2107   0.990       .  S
O2085      H2099   0.990       .  S
O2085      H2106   0.990       .  S
O2086      C2090   1.290       .  A
O2087      C2090   1.280       .  A
O2088      H2098   0.990       .  S
O2089      H2102   0.990       .  S
C2090      C2470   1.489       .  S
Zr2113     O2114   2.442       .  S
Zr2113     O2115   2.450       .  S
Zr2113     O2116   2.434       .  S
Zr2113     O2119   2.433       .  S
Zr2113     O2121   2.387       .  S
Zr2113     O2122   2.379       .  S
Zr2113     O2123   2.414       .  S
Zr2113     O2124   2.400       .  S
O2114      H2170   0.990       .  S
O2114      H2178   0.990       .  S
O2115      C2135   1.287       .  A
O2116      C2137   1.284       .  A
O2117     Zr2127   2.394       .  S
O2117      C2136   1.278       .  A
O2118     Zr2126   2.442       .  S
O2118      C2137   1.287       .  A
O2119      C2136   1.284       .  A
O2120     Zr2128   2.432       .  S
O2120      C2135   1.284       .  A
O2121     Zr2126   2.401       .  S
O2121     Zr2128   2.384       .  S
O2122     Zr2127   2.377       .  S
O2122     Zr2128   2.369       .  S
O2122      H2157   0.966       .  S
O2123     Zr2126   2.401       .  S
O2123     Zr2143   2.384       .  S
O2123      H2160   0.965       .  S
O2124     Zr2127   2.385       .  S
O2124     Zr2143   2.391       .  S
Zr2125     O2150   2.446       .  S
Zr2125     O2144   2.459       .  S
Zr2125     O2152   2.477       .  S
Zr2125     O2140   2.438       .  S
Zr2125     O2131   2.406       .  S
Zr2125     O2132   2.420       .  S
Zr2125     O2133   2.382       .  S
Zr2125     O2134   2.376       .  S
Zr2126     O2145   2.441       .  S
Zr2126     O2138   2.434       .  S
Zr2126     O2139   2.445       .  S
Zr2126     O2132   2.402       .  S
Zr2126     O2133   2.393       .  S
Zr2127     O2129   2.436       .  S
Zr2127     O2151   2.439       .  S
Zr2127     O2153   2.387       .  S
Zr2127     O2131   2.378       .  S
Zr2127     O2134   2.386       .  S
Zr2128     O2154   2.438       .  S
Zr2128     O2155   2.434       .  S
Zr2128     O2130   2.436       .  S
Zr2128     O2131   2.397       .  S
Zr2128     O2132   2.397       .  S
O2129      H2166   0.990       .  S
O2130      H2161   0.990       .  S
O2130      H2175   0.990       .  S
O2132      H2158   0.966       .  S
O2133     Zr2143   2.374       .  S
O2134     Zr2143   2.371       .  S
O2134      H2159   0.965       .  S
C2135      C2570   1.494       .  S
C2136      C2730   1.466       .  S
C2137      C2441   1.487       .  S
O2138      H2174   0.990       .  S
O2139      C2141   1.288       .  A
O2140      C2141   1.287       .  A
C2141      C3930   1.488       .  S
O2142     Zr2143   2.439       .  S
O2142      H2171   0.990       .  S
Zr2143     O2146   2.438       .  S
Zr2143     O2147   2.436       .  S
Zr2143     O2148   2.418       .  S
O2144      C2149   1.288       .  A
O2145      H2162   0.990       .  S
O2145      H2177   0.990       .  S
O2146      H2163   0.990       .  S
O2147      H2167   0.990       .  S
O2147      H2176   0.990       .  S
O2148      C2149   1.282       .  A
C2149      C2421   1.482       .  S
O2150      H2169   0.991       .  S
O2150      H2173   0.990       .  S
O2151      H2165   0.990       .  S
O2151      H2172   0.990       .  S
O2152      C2156   1.293       .  A
O2153      C2156   1.277       .  A
O2154      H2164   0.990       .  S
O2155      H2168   0.990       .  S
C2156      C2461   1.488       .  S
Zr2179     O2180   2.444       .  S
Zr2179     O2181   2.451       .  S
Zr2179     O2182   2.437       .  S
Zr2179     O2185   2.457       .  S
Zr2179     O2187   2.390       .  S
Zr2179     O2188   2.382       .  S
Zr2179     O2189   2.419       .  S
Zr2179     O2190   2.404       .  S
O2180      H2236   0.991       .  S
O2180      H2244   0.991       .  S
O2181      C2201   1.287       .  A
O2182      C2203   1.283       .  A
O2183     Zr2193   2.399       .  S
O2183      C2202   1.278       .  A
O2184     Zr2192   2.433       .  S
O2184      C2203   1.284       .  A
O2185      C2202   1.289       .  A
O2186     Zr2194   2.439       .  S
O2186      C2201   1.284       .  A
O2187     Zr2192   2.407       .  S
O2187     Zr2194   2.383       .  S
O2188     Zr2193   2.384       .  S
O2188     Zr2194   2.375       .  S
O2188      H2223   0.966       .  S
O2189     Zr2192   2.412       .  S
O2189     Zr2209   2.386       .  S
O2189      H2226   0.963       .  S
O2190     Zr2193   2.386       .  S
O2190     Zr2209   2.394       .  S
Zr2191     O2216   2.441       .  S
Zr2191     O2210   2.458       .  S
Zr2191     O2218   2.459       .  S
Zr2191     O2206   2.431       .  S
Zr2191     O2197   2.408       .  S
Zr2191     O2198   2.419       .  S
Zr2191     O2199   2.379       .  S
Zr2191     O2200   2.382       .  S
Zr2192     O2211   2.442       .  S
Zr2192     O2204   2.435       .  S
Zr2192     O2205   2.463       .  S
Zr2192     O2198   2.404       .  S
Zr2192     O2199   2.382       .  S
Zr2193     O2195   2.435       .  S
Zr2193     O2217   2.438       .  S
Zr2193     O2219   2.402       .  S
Zr2193     O2197   2.384       .  S
Zr2193     O2200   2.388       .  S
Zr2194     O2220   2.438       .  S
Zr2194     O2221   2.436       .  S
Zr2194     O2196   2.435       .  S
Zr2194     O2197   2.401       .  S
Zr2194     O2198   2.405       .  S
O2195      H2232   0.990   1_556  S
O2196      H2227   0.990       .  S
O2196      H2241   0.990       .  S
O2198      H2224   0.967       .  S
O2199     Zr2209   2.367       .  S
O2200     Zr2209   2.370       .  S
O2200      H2225   0.965       .  S
C2201      C2601   1.502       .  S
C2202      C2841   1.485       .  S
C2203      C2450   1.483       .  S
O2204      H2240   0.990       .  S
O2205      C2207   1.291       .  A
O2206      C2207   1.285       .  A
C2207      C2861   1.488       .  S
O2208     Zr2209   2.436       .  S
O2208      H2237   0.990       .  S
Zr2209     O2212   2.436       .  S
Zr2209     O2213   2.442       .  S
Zr2209     O2214   2.414       .  S
O2210      C2215   1.288       .  A
O2211      H2228   0.990       .  S
O2211      H2243   0.990       .  S
O2212      H2229   0.990       .  S
O2213      H2233   0.990       .  S
O2213      H2242   0.990       .  S
O2214      C2215   1.281       .  A
C2215      C2530   1.481       .  S
O2216      H2235   0.991       .  S
O2216      H2239   0.990       .  S
O2217      H2231   0.990       .  S
O2217      H2238   0.990       .  S
O2218      C2222   1.290       .  A
O2219      C2222   1.279       .  A
O2220      H2230   0.990       .  S
O2221      H2234   0.990       .  S
C2222      C2410   1.477   1_556  S
Zr2245     O2246   2.442       .  S
Zr2245     O2247   2.441       .  S
Zr2245     O2248   2.427       .  S
Zr2245     O2251   2.457       .  S
Zr2245     O2253   2.390       .  S
Zr2245     O2254   2.377       .  S
Zr2245     O2255   2.418       .  S
Zr2245     O2256   2.401       .  S
O2246      H2302   0.990       .  S
O2246      H2310   0.990       .  S
O2247      C2267   1.284       .  A
O2248      C2269   1.283       .  A
O2249     Zr2259   2.388       .  S
O2249      C2268   1.276       .  A
O2250     Zr2258   2.460       .  S
O2250      C2269   1.291       .  A
O2251      C2268   1.288       .  A
O2252     Zr2260   2.420       .  S
O2252      C2267   1.281       .  A
O2253     Zr2258   2.403       .  S
O2253     Zr2260   2.378       .  S
O2254     Zr2259   2.387       .  S
O2254     Zr2260   2.377       .  S
O2254      H2289   0.967       .  S
O2255     Zr2258   2.410       .  S
O2255     Zr2275   2.389       .  S
O2255      H2292   0.965       .  S
O2256     Zr2259   2.384       .  S
O2256     Zr2275   2.394       .  S
Zr2257     O2282   2.444   1_545  S
Zr2257     O2276   2.458   1_545  S
Zr2257     O2284   2.492       .  S
Zr2257     O2272   2.443   1_545  S
Zr2257     O2263   2.404       .  S
Zr2257     O2264   2.422       .  S
Zr2257     O2265   2.387       .  S
Zr2257     O2266   2.379       .  S
Zr2258     O2277   2.436       .  S
Zr2258     O2270   2.437       .  S
Zr2258     O2271   2.470       .  S
Zr2258     O2264   2.401       .  S
Zr2258     O2265   2.391       .  S
Zr2259     O2261   2.435       .  S
Zr2259     O2283   2.432       .  S
Zr2259     O2285   2.388       .  S
Zr2259     O2263   2.384       .  S
Zr2259     O2266   2.382       .  S
Zr2260     O2286   2.437       .  S
Zr2260     O2287   2.438       .  S
Zr2260     O2262   2.442       .  S
Zr2260     O2263   2.404       .  S
Zr2260     O2264   2.396       .  S
O2261      H2298   0.990       .  S
O2262      H2293   0.991       .  S
O2262      H2307   0.990       .  S
O2264      H2290   0.966       .  S
O2265     Zr2275   2.379       .  S
O2266     Zr2275   2.374       .  S
O2266      H2291   0.966       .  S
C2267      C3010   1.491       .  S
C2268      C2881   1.488       .  S
C2269      C2381   1.493       .  S
O2270      H2306   0.990       .  S
O2271      C2273   1.293   1_545  A
O2272      C2273   1.288       .  A
C2273      C3821   1.502       .  S
O2274     Zr2275   2.441       .  S
O2274      H2303   0.990       .  S
Zr2275     O2278   2.437       .  S
Zr2275     O2279   2.441       .  S
Zr2275     O2280   2.412       .  S
O2276      C2281   1.289       .  A
O2277      H2294   0.990       .  S
O2277      H2309   0.990       .  S
O2278      H2295   0.990       .  S
O2279      H2299   0.990       .  S
O2279      H2308   0.990       .  S
O2280      C2281   1.281   1_545  A
C2281      C2430   1.481       .  S
O2282      H2301   0.990   1_565  S
O2282      H2305   0.990       .  S
O2283      H2297   0.990       .  S
O2283      H2304   0.990       .  S
O2284      C2288   1.296       .  A
O2285      C2288   1.275       .  A
O2286      H2296   0.990       .  S
O2287      H2300   0.990       .  S
C2288      C2510   1.496       .  S
Zr2311     O2312   2.442       .  S
Zr2311     O2313   2.443       .  S
Zr2311     O2314   2.436       .  S
Zr2311     O2317   2.437       .  S
Zr2311     O2319   2.387       .  S
Zr2311     O2320   2.381       .  S
Zr2311     O2321   2.414       .  S
Zr2311     O2322   2.396       .  S
O2312      H2368   0.990       .  S
O2312      H2376   0.990       .  S
O2313      C2333   1.285       .  A
O2314      C2335   1.284       .  A
O2315     Zr2325   2.416       .  S
O2315      C2334   1.282       .  A
O2316     Zr2324   2.445       .  S
O2316      C2335   1.287       .  A
O2317      C2334   1.284       .  A
O2318     Zr2326   2.412       .  S
O2318      C2333   1.280       .  A
O2319     Zr2324   2.401       .  S
O2319     Zr2326   2.384       .  S
O2320     Zr2325   2.385       .  S
O2320     Zr2326   2.379       .  S
O2320      H2355   0.965       .  S
O2321     Zr2324   2.412       .  S
O2321     Zr2341   2.385       .  S
O2321      H2358   0.965       .  S
O2322     Zr2325   2.382       .  S
O2322     Zr2341   2.382       .  S
Zr2323     O2348   2.444       .  S
Zr2323     O2342   2.452       .  S
Zr2323     O2350   2.461       .  S
Zr2323     O2338   2.431       .  S
Zr2323     O2329   2.407       .  S
Zr2323     O2330   2.414       .  S
Zr2323     O2331   2.380       .  S
Zr2323     O2332   2.380       .  S
Zr2324     O2343   2.438       .  S
Zr2324     O2336   2.434       .  S
Zr2324     O2337   2.460       .  S
Zr2324     O2330   2.400       .  S
Zr2324     O2331   2.392       .  S
Zr2325     O2327   2.437       .  S
Zr2325     O2349   2.435       .  S
Zr2325     O2351   2.406       .  S
Zr2325     O2329   2.389       .  S
Zr2325     O2332   2.389       .  S
Zr2326     O2352   2.440       .  S
Zr2326     O2353   2.439       .  S
Zr2326     O2328   2.438       .  S
Zr2326     O2329   2.397       .  S
Zr2326     O2330   2.395       .  S
O2327      H2364   0.990       .  S
O2328      H2359   0.991       .  S
O2328      H2373   0.990       .  S
O2330      H2356   0.966       .  S
O2331     Zr2341   2.376       .  S
O2332     Zr2341   2.367       .  S
O2332      H2357   0.966       .  S
C2333      C3101   1.491       .  S
C2334      C2950   1.473       .  S
C2335      C2390   1.483       .  S
O2336      H2372   0.990       .  S
O2337      C2339   1.291       .  A
O2338      C2339   1.285       .  A
C2339      C2710   1.491       .  S
O2340     Zr2341   2.440       .  S
O2340      H2369   0.990       .  S
Zr2341     O2344   2.439       .  S
Zr2341     O2345   2.441       .  S
Zr2341     O2346   2.410       .  S
O2342      C2347   1.287       .  A
O2343      H2360   0.990       .  S
O2343      H2375   0.990       .  S
O2344      H2361   0.990       .  S
O2345      H2365   0.990       .  S
O2345      H2374   0.990       .  S
O2346      C2347   1.280       .  A
C2347      C2490   1.476       .  S
O2348      H2367   0.990       .  S
O2348      H2371   0.990       .  S
O2349      H2363   0.990       .  S
O2349      H2370   0.990       .  S
O2350      C2354   1.290       .  A
O2351      C2354   1.279       .  A
O2352      H2362   0.990       .  S
O2353      H2366   0.990       .  S
C2354      C2401   1.470       .  S
C2377      C2378   1.405       .  A
C2377      C2382   1.400       .  A
C2377      H2387   1.083       .  S
C2378      C2383   1.487       .  S
C2378      C2379   1.405       .  A
C2379      C2380   1.400       .  A
C2379      F2384   1.358       .  S
C2380      C2381   1.413       .  A
C2380      H2385   1.083       .  S
C2381      C2382   1.409       .  A
C2382      F2386   1.356       .  S
C2383      C2388   1.407       .  A
C2383      C2392   1.405       .  A
C2388      C2389   1.397       .  A
C2388      F2393   1.358       .  S
C2389      C2390   1.405       .  A
C2389      H2394   1.083       .  S
C2390      C2391   1.410       .  A
C2391      C2392   1.401       .  A
C2391      F2395   1.357       .  S
C2392      H2396   1.083       .  S
C2397      C2398   1.402       .  A
C2397      C2402   1.399       .  A
C2397      H2407   1.083       .  S
C2398      C2403   1.477       .  S
C2398      C2399   1.406       .  A
C2399      C2400   1.399       .  A
C2399      F2404   1.358       .  S
C2400      C2401   1.402       .  A
C2400      H2405   1.084       .  S
C2401      C2402   1.406       .  A
C2402      F2406   1.357       .  S
C2403      C2408   1.408       .  A
C2403      C2412   1.398       .  A
C2408      C2409   1.401       .  A
C2408      F2413   1.357       .  S
C2409      C2410   1.403       .  A
C2409      H2414   1.083       .  S
C2410      C2411   1.412       .  A
C2411      C2412   1.395       .  A
C2411      F2415   1.358       .  S
C2412      H2416   1.084       .  S
C2417      C2418   1.402       .  A
C2417      C2422   1.399       .  A
C2417      H2427   1.084       .  S
C2418      C2423   1.484       .  S
C2418      C2419   1.407       .  A
C2419      C2420   1.406       .  A
C2419      F2424   1.357       .  S
C2420      C2421   1.406       .  A
C2420      H2425   1.084       .  S
C2421      C2422   1.407       .  A
C2422      F2426   1.357       .  S
C2423      C2428   1.405       .  A
C2423      C2432   1.405       .  A
C2428      C2429   1.399       .  A
C2428      F2433   1.358       .  S
C2429      C2430   1.405       .  A
C2429      H2434   1.084       .  S
C2430      C2431   1.408       .  A
C2431      C2432   1.407       .  A
C2431      F2435   1.358       .  S
C2432      H2436   1.083       .  S
C2437      C2438   1.402       .  A
C2437      C2442   1.398       .  A
C2437      H2447   1.083   1_565  S
C2438      C2443   1.480   1_565  S
C2438      C2439   1.406       .  A
C2439      C2440   1.398       .  A
C2439      F2444   1.358       .  S
C2440      C2441   1.407       .  A
C2440      H2445   1.083       .  S
C2441      C2442   1.413       .  A
C2442      F2446   1.357       .  S
C2443      C2448   1.404       .  A
C2443      C2452   1.403       .  A
C2448      C2449   1.398       .  A
C2448      F2453   1.357       .  S
C2449      C2450   1.408       .  A
C2449      H2454   1.083       .  S
C2450      C2451   1.410       .  A
C2451      C2452   1.397       .  A
C2451      F2455   1.357       .  S
C2452      H2456   1.083       .  S
C2457      C2458   1.410       .  A
C2457      C2462   1.405       .  A
C2457      H2467   1.083       .  S
C2458      C2463   1.485       .  S
C2458      C2459   1.400       .  A
C2459      C2460   1.394       .  A
C2459      F2464   1.358       .  S
C2460      C2461   1.413       .  A
C2460      H2465   1.083       .  S
C2461      C2462   1.406       .  A
C2462      F2466   1.357       .  S
C2463      C2468   1.401       .  A
C2463      C2472   1.409       .  A
C2468      C2469   1.395       .  A
C2468      F2473   1.358       .  S
C2469      C2470   1.411       .  A
C2469      H2474   1.083       .  S
C2470      C2471   1.408       .  A
C2471      C2472   1.404       .  A
C2471      F2475   1.357       .  S
C2472      H2476   1.083       .  S
C2477      C2478   1.401       .  A
C2477      C2482   1.400       .  A
C2477      H2487   1.083       .  S
C2478      C2483   1.477   1_565  S
C2478      C2479   1.406       .  A
C2479      C2480   1.401       .  A
C2479      F2484   1.358   1_565  S
C2480      C2481   1.405       .  A
C2480      H2485   1.083       .  S
C2481      C2482   1.408       .  A
C2482      F2486   1.358       .  S
C2483      C2488   1.405       .  A
C2483      C2492   1.401       .  A
C2488      C2489   1.404       .  A
C2488      F2493   1.357       .  S
C2489      C2490   1.406       .  A
C2489      H2494   1.083       .  S
C2490      C2491   1.408       .  A
C2491      C2492   1.396       .  A
C2491      F2495   1.358       .  S
C2492      H2496   1.084       .  S
C2497      C2498   1.403   1_565  A
C2497      C2502   1.398       .  A
C2497      H2507   1.083       .  S
C2498      C2503   1.493       .  S
C2498      C2499   1.413       .  A
C2499      C2500   1.403       .  A
C2499      F2504   1.357       .  S
C2500      C2501   1.403   1_545  A
C2500      H2505   1.083       .  S
C2501      C2502   1.411       .  A
C2502      F2506   1.358       .  S
C2503      C2508   1.412   1_545  A
C2503      C2512   1.400       .  A
C2508      C2509   1.406       .  A
C2508      F2513   1.356       .  S
C2509      C2510   1.403   1_565  A
C2509      H2514   1.083       .  S
C2510      C2511   1.419       .  A
C2511      C2512   1.398       .  A
C2511      F2515   1.358       .  S
C2512      H2516   1.084       .  S
C2517      C2518   1.406       .  A
C2517      C2522   1.401       .  A
C2517      H2527   1.083       .  S
C2518      C2523   1.497       .  S
C2518      C2519   1.413       .  A
C2519      C2520   1.406       .  A
C2519      F2524   1.357       .  S
C2520      C2521   1.402       .  A
C2520      H2525   1.083       .  S
C2521      C2522   1.408       .  A
C2522      F2526   1.358       .  S
C2523      C2528   1.415       .  A
C2523      C2532   1.404       .  A
C2528      C2529   1.409       .  A
C2528      F2533   1.357       .  S
C2529      C2530   1.404       .  A
C2529      H2534   1.083       .  S
C2530      C2531   1.407       .  A
C2531      C2532   1.393       .  A
C2531      F2535   1.358       .  S
C2532      H2536   1.082       .  S
C2537      C2538   1.403       .  A
C2537      C2542   1.398       .  A
C2537      H2547   1.083       .  S
C2538      C2543   1.488       .  S
C2538      C2539   1.409       .  A
C2539      C2540   1.400       .  A
C2539      F2544   1.357       .  S
C2540      C2541   1.406       .  A
C2540      H2545   1.083       .  S
C2541      C2542   1.412       .  A
C2542      F2546   1.357       .  S
C2543      C2548   1.407       .  A
C2543      C2552   1.403       .  A
C2548      C2549   1.403       .  A
C2548      F2553   1.358       .  S
C2549      C2550   1.410       .  A
C2549      H2554   1.083       .  S
C2550      C2551   1.414       .  A
C2551      C2552   1.400       .  A
C2551      F2555   1.357       .  S
C2552      H2556   1.083       .  S
C2557      C2558   1.408       .  A
C2557      C2562   1.403       .  A
C2557      H2567   1.083       .  S
C2558      C2563   1.492       .  S
C2558      C2559   1.407       .  A
C2559      C2560   1.396       .  A
C2559      F2564   1.357       .  S
C2560      C2561   1.407       .  A
C2560      H2565   1.083       .  S
C2561      C2562   1.410       .  A
C2562      F2566   1.357       .  S
C2563      C2568   1.410       .  A
C2563      C2572   1.404       .  A
C2568      C2569   1.402       .  A
C2568      F2573   1.357       .  S
C2569      C2570   1.408       .  A
C2569      H2574   1.083       .  S
C2570      C2571   1.413       .  A
C2571      C2572   1.399       .  A
C2571      F2575   1.357       .  S
C2572      H2576   1.083       .  S
C2577      C2578   1.403       .  A
C2577      C2582   1.398       .  A
C2577      H2587   1.083       .  S
C2578      C2583   1.488       .  S
C2578      C2579   1.407       .  A
C2579      C2580   1.403       .  A
C2579      F2584   1.358       .  S
C2580      C2581   1.411       .  A
C2580      H2585   1.083       .  S
C2581      C2582   1.409       .  A
C2582      F2586   1.357       .  S
C2583      C2588   1.405       .  A
C2583      C2592   1.405       .  A
C2588      C2589   1.400       .  A
C2588      F2593   1.356       .  S
C2589      C2590   1.408       .  A
C2589      H2594   1.083       .  S
C2590      C2591   1.412       .  A
C2591      C2592   1.400       .  A
C2591      F2595   1.358       .  S
C2592      H2596   1.083       .  S
C2597      C2598   1.405       .  A
C2597      C2602   1.405       .  A
C2597      H2607   1.083       .  S
C2598      C2603   1.498       .  S
C2598      C2599   1.409       .  A
C2599      C2600   1.405       .  A
C2599      F2604   1.357       .  S
C2600      C2601   1.409       .  A
C2600      H2605   1.083       .  S
C2601      C2602   1.414       .  A
C2602      F2606   1.357       .  S
C2603      C2608   1.406       .  A
C2603      C2612   1.409       .  A
C2608      C2609   1.400       .  A
C2608      F2613   1.357       .  S
C2609      C2610   1.411       .  A
C2609      H2614   1.083       .  S
C2610      C2611   1.410       .  A
C2611      C2612   1.409       .  A
C2611      F2615   1.357       .  S
C2612      H2616   1.083       .  S
C2617      C2618   1.403       .  A
C2617      C2622   1.402       .  A
C2617      H2627   1.083       .  S
C2618      C2623   1.474   1_565  S
C2618      C2619   1.403       .  A
C2619      C2620   1.395       .  A
C2619      F2624   1.358       .  S
C2620      C2621   1.405       .  A
C2620      H2625   1.084       .  S
C2621      C2622   1.406       .  A
C2622      F2626   1.357       .  S
C2623      C2628   1.405       .  A
C2623      C2632   1.401       .  A
C2628      C2629   1.398       .  A
C2628      F2633   1.358       .  S
C2629      C2630   1.404       .  A
C2629      H2634   1.084       .  S
C2630      C2631   1.407       .  A
C2631      C2632   1.400       .  A
C2631      F2635   1.357       .  S
C2632      H2636   1.083       .  S
C2637      C2638   1.411   1_565  A
C2637      C2642   1.406       .  A
C2637      H2647   1.083       .  S
C2638      C2643   1.482       .  S
C2638      C2639   1.399       .  A
C2639      C2640   1.387       .  A
C2639      F2644   1.358       .  S
C2640      C2641   1.413       .  A
C2640      H2645   1.083       .  S
C2641      C2642   1.407   1_545  A
C2642      F2646   1.357       .  S
C2643      C2648   1.412       .  A
C2643      C2652   1.400   1_545  A
C2648      C2649   1.399       .  A
C2648      F2653   1.357       .  S
C2649      C2650   1.400   1_545  A
C2649      H2654   1.084       .  S
C2650      C2651   1.407       .  A
C2651      C2652   1.393       .  A
C2651      F2655   1.358       .  S
C2652      H2656   1.083       .  S
C2657      C2658   1.399       .  A
C2657      C2662   1.394       .  A
C2657      H2667   1.084       .  S
C2658      C2663   1.470       .  S
C2658      C2659   1.403       .  A
C2659      C2660   1.397       .  A
C2659      F2664   1.358       .  S
C2660      C2661   1.409       .  A
C2660      H2665   1.083       .  S
C2661      C2662   1.412       .  A
C2662      F2666   1.356       .  S
C2663      C2668   1.403       .  A
C2663      C2672   1.399       .  A
C2668      C2669   1.395       .  A
C2668      F2673   1.358       .  S
C2669      C2670   1.407       .  A
C2669      H2674   1.083       .  S
C2670      C2671   1.412       .  A
C2671      C2672   1.393       .  A
C2671      F2675   1.357       .  S
C2672      H2676   1.084       .  S
C2677      C2678   1.400       .  A
C2677      C2682   1.394       .  A
C2677      H2687   1.083       .  S
C2678      C2683   1.482       .  S
C2678      C2679   1.409       .  A
C2679      C2680   1.401       .  A
C2679      F2684   1.357       .  S
C2680      C2681   1.403       .  A
C2680      H2685   1.083       .  S
C2681      C2682   1.413       .  A
C2682      F2686   1.358       .  S
C2683      C2688   1.408       .  A
C2683      C2692   1.406       .  A
C2688      C2689   1.398       .  A
C2688      F2693   1.357       .  S
C2689      C2690   1.400       .  A
C2689      H2694   1.084       .  S
C2690      C2691   1.403       .  A
C2691      C2692   1.398       .  A
C2691      F2695   1.358       .  S
C2692      H2696   1.083       .  S
C2697      C2698   1.405       .  A
C2697      C2702   1.403       .  A
C2697      H2707   1.083       .  S
C2698      C2703   1.491       .  S
C2698      C2699   1.405       .  A
C2699      C2700   1.402       .  A
C2699      F2704   1.357       .  S
C2700      C2701   1.410       .  A
C2700      H2705   1.083       .  S
C2701      C2702   1.412       .  A
C2702      F2706   1.357       .  S
C2703      C2708   1.408       .  A
C2703      C2712   1.404       .  A
C2708      C2709   1.405       .  A
C2708      F2713   1.357       .  S
C2709      C2710   1.407       .  A
C2709      H2714   1.083       .  S
C2710      C2711   1.412       .  A
C2711      C2712   1.401       .  A
C2711      F2715   1.358       .  S
C2712      H2716   1.083       .  S
C2717      C2718   1.406       .  A
C2717      C2722   1.399       .  A
C2717      H2727   1.083       .  S
C2718      C2723   1.472       .  S
C2718      C2719   1.400       .  A
C2719      C2720   1.389       .  A
C2719      F2724   1.358       .  S
C2720      C2721   1.409       .  A
C2720      H2725   1.083       .  S
C2721      C2722   1.407       .  A
C2722      F2726   1.357       .  S
C2723      C2728   1.408       .  A
C2723      C2732   1.400   1_545  A
C2728      C2729   1.397   1_545  A
C2728      F2733   1.358       .  S
C2729      C2730   1.403       .  A
C2729      H2734   1.084   1_565  S
C2730      C2731   1.406       .  A
C2731      C2732   1.390       .  A
C2731      F2735   1.358       .  S
C2732      H2736   1.083       .  S
C2737      C2738   1.403       .  A
C2737      C2742   1.398       .  A
C2737      H2747   1.084       .  S
C2738      C2743   1.483       .  S
C2738      C2739   1.406       .  A
C2739      C2740   1.406       .  A
C2739      F2744   1.357       .  S
C2740      C2741   1.406       .  A
C2740      H2745   1.083       .  S
C2741      C2742   1.406       .  A
C2742      F2746   1.358       .  S
C2743      C2748   1.404       .  A
C2743      C2752   1.406       .  A
C2748      C2749   1.402       .  A
C2748      F2753   1.357       .  S
C2749      C2750   1.404       .  A
C2749      H2754   1.083       .  S
C2750      C2751   1.406       .  A
C2751      C2752   1.404       .  A
C2751      F2755   1.358       .  S
C2752      H2756   1.083       .  S
C2757      C2758   1.408       .  A
C2757      C2762   1.402       .  A
C2757      H2767   1.083       .  S
C2758      C2763   1.484       .  S
C2758      C2759   1.402       .  A
C2759      C2760   1.394       .  A
C2759      F2764   1.358       .  S
C2760      C2761   1.413       .  A
C2760      H2765   1.083       .  S
C2761      C2762   1.409       .  A
C2762      F2766   1.356       .  S
C2763      C2768   1.411       .  A
C2763      C2772   1.402       .  A
C2768      C2769   1.398       .  A
C2768      F2773   1.357       .  S
C2769      C2770   1.401       .  A
C2769      H2774   1.083       .  S
C2770      C2771   1.410       .  A
C2771      C2772   1.393       .  A
C2771      F2775   1.358       .  S
C2772      H2776   1.083       .  S
C2777      C2778   1.401       .  A
C2777      C2782   1.392       .  A
C2777      H2787   1.083       .  S
C2778      C2783   1.480       .  S
C2778      C2779   1.406       .  A
C2779      C2780   1.401       .  A
C2779      F2784   1.357       .  S
C2780      C2781   1.406       .  A
C2780      H2785   1.083       .  S
C2781      C2782   1.412       .  A
C2782      F2786   1.358       .  S
C2783      C2788   1.404       .  A
C2783      C2792   1.404       .  A
C2788      C2789   1.394       .  A
C2788      F2793   1.358       .  S
C2789      C2790   1.409       .  A
C2789      H2794   1.083       .  S
C2790      C2791   1.412       .  A
C2791      C2792   1.400       .  A
C2791      F2795   1.357       .  S
C2792      H2796   1.083       .  S
C2797      C2798   1.400       .  A
C2797      C2802   1.398       .  A
C2797      H2807   1.084       .  S
C2798      C2803   1.468   1_565  S
C2798      C2799   1.401       .  A
C2799      C2800   1.394       .  A
C2799      F2804   1.358   1_565  S
C2800      C2801   1.406       .  A
C2800      H2805   1.083       .  S
C2801      C2802   1.411       .  A
C2802      F2806   1.357       .  S
C2803      C2808   1.401       .  A
C2803      C2812   1.400       .  A
C2808      C2809   1.393       .  A
C2808      F2813   1.358   1_545  S
C2809      C2810   1.407       .  A
C2809      H2814   1.083       .  S
C2810      C2811   1.410       .  A
C2811      C2812   1.397       .  A
C2811      F2815   1.358       .  S
C2812      H2816   1.083       .  S
C2817      C2818   1.404       .  A
C2817      C2822   1.396       .  A
C2817      H2827   1.083       .  S
C2818      C2823   1.493       .  S
C2818      C2819   1.413       .  A
C2819      C2820   1.406       .  A
C2819      F2824   1.357       .  S
C2820      C2821   1.402       .  A
C2820      H2825   1.083       .  S
C2821      C2822   1.406       .  A
C2822      F2826   1.358       .  S
C2823      C2828   1.407       .  A
C2823      C2832   1.412       .  A
C2828      C2829   1.395       .  A
C2828      F2833   1.357       .  S
C2829      C2830   1.405       .  A
C2829      H2834   1.084       .  S
C2830      C2831   1.406       .  A
C2831      C2832   1.407       .  A
C2831      F2835   1.357       .  S
C2832      H2836   1.083       .  S
C2837      C2838   1.399   1_554  A
C2837      C2842   1.394   1_554  A
C2837      H2847   1.083       .  S
C2838      C2843   1.487   1_546  S
C2838      C2839   1.413       .  A
C2839      C2840   1.401       .  A
C2839      F2844   1.357   1_545  S
C2840      C2841   1.403       .  A
C2840      H2845   1.083       .  S
C2841      C2842   1.413       .  A
C2842      F2846   1.357   1_556  S
C2843      C2848   1.413       .  A
C2843      C2852   1.400       .  A
C2848      C2849   1.401       .  A
C2848      F2853   1.357   1_565  S
C2849      C2850   1.403       .  A
C2849      H2854   1.083       .  S
C2850      C2851   1.411       .  A
C2851      C2852   1.392       .  A
C2851      F2855   1.358       .  S
C2852      H2856   1.083   1_554  S
C2857      C2858   1.404       .  A
C2857      C2862   1.401       .  A
C2857      H2867   1.083       .  S
C2858      C2863   1.488       .  S
C2858      C2859   1.407       .  A
C2859      C2860   1.404       .  A
C2859      F2864   1.357       .  S
C2860      C2861   1.406       .  A
C2860      H2865   1.083       .  S
C2861      C2862   1.410       .  A
C2862      F2866   1.358       .  S
C2863      C2868   1.405       .  A
C2863      C2872   1.405       .  A
C2868      C2869   1.399       .  A
C2868      F2873   1.357       .  S
C2869      C2870   1.410       .  A
C2869      H2874   1.083       .  S
C2870      C2871   1.411       .  A
C2871      C2872   1.402       .  A
C2871      F2875   1.357       .  S
C2872      H2876   1.083       .  S
C2877      C2878   1.399       .  A
C2877      C2882   1.390       .  A
C2877      H2887   1.083       .  S
C2878      C2883   1.485       .  S
C2878      C2879   1.411       .  A
C2879      C2880   1.404       .  A
C2879      F2884   1.357       .  S
C2880      C2881   1.407       .  A
C2880      H2885   1.083       .  S
C2881      C2882   1.415       .  A
C2882      F2886   1.358       .  S
C2883      C2888   1.411       .  A
C2883      C2892   1.403       .  A
C2888      C2889   1.398       .  A
C2888      F2893   1.358       .  S
C2889      C2890   1.401       .  A
C2889      H2894   1.083       .  S
C2890      C2891   1.409       .  A
C2891      C2892   1.400       .  A
C2891      F2895   1.358       .  S
C2892      H2896   1.083       .  S
C2897      C2898   1.405       .  A
C2897      C2902   1.401       .  A
C2897      H2907   1.083   1_554  S
C2898      C2903   1.491       .  S
C2898      C2899   1.406       .  A
C2899      C2900   1.402       .  A
C2899      F2904   1.357       .  S
C2900      C2901   1.410       .  A
C2900      H2905   1.083       .  S
C2901      C2902   1.413       .  A
C2902      F2906   1.358       .  S
C2903      C2908   1.405   1_554  A
C2903      C2912   1.406       .  A
C2908      C2909   1.400       .  A
C2908      F2913   1.358       .  S
C2909      C2910   1.411       .  A
C2909      H2914   1.083       .  S
C2910      C2911   1.411   1_556  A
C2911      C2912   1.405       .  A
C2911      F2915   1.357       .  S
C2912      H2916   1.083       .  S
C2917      C2918   1.405       .  A
C2917      C2922   1.399       .  A
C2917      H2927   1.083       .  S
C2918      C2923   1.485       .  S
C2918      C2919   1.406       .  A
C2919      C2920   1.398       .  A
C2919      F2924   1.357       .  S
C2920      C2921   1.407       .  A
C2920      H2925   1.083       .  S
C2921      C2922   1.410       .  A
C2922      F2926   1.357       .  S
C2923      C2928   1.408       .  A
C2923      C2932   1.402       .  A
C2928      C2929   1.400       .  A
C2928      F2933   1.357       .  S
C2929      C2930   1.407       .  A
C2929      H2934   1.083       .  S
C2930      C2931   1.413       .  A
C2931      C2932   1.396       .  A
C2931      F2935   1.357       .  S
C2932      H2936   1.083       .  S
C2937      C2938   1.405       .  A
C2937      C2942   1.397       .  A
C2937      H2947   1.083       .  S
C2938      C2943   1.475       .  S
C2938      C2939   1.401       .  A
C2939      C2940   1.392       .  A
C2939      F2944   1.358       .  S
C2940      C2941   1.411       .  A
C2940      H2945   1.083       .  S
C2941      C2942   1.406       .  A
C2942      F2946   1.357       .  S
C2943      C2948   1.403       .  A
C2943      C2952   1.405       .  A
C2948      C2949   1.394       .  A
C2948      F2953   1.357       .  S
C2949      C2950   1.404       .  A
C2949      H2954   1.083       .  S
C2950      C2951   1.406       .  A
C2951      C2952   1.399       .  A
C2951      F2955   1.358       .  S
C2952      H2956   1.083       .  S
C2957      C2958   1.400       .  A
C2957      C2962   1.395       .  A
C2957      H2967   1.084       .  S
C2958      C2963   1.483       .  S
C2958      C2959   1.406       .  A
C2959      C2960   1.409       .  A
C2959      F2964   1.357       .  S
C2960      C2961   1.409       .  A
C2960      H2965   1.083       .  S
C2961      C2962   1.411       .  A
C2962      F2966   1.358       .  S
C2963      C2968   1.407       .  A
C2963      C2972   1.403       .  A
C2968      C2969   1.407       .  A
C2968      F2973   1.357       .  S
C2969      C2970   1.407       .  A
C2969      H2974   1.083       .  S
C2970      C2971   1.406       .  A
C2971      C2972   1.397       .  A
C2971      F2975   1.357       .  S
C2972      H2976   1.084       .  S
C2977      C2978   1.407       .  A
C2977      C2982   1.399       .  A
C2977      H2987   1.083       .  S
C2978      C2983   1.476       .  S
C2978      C2979   1.400       .  A
C2979      C2980   1.393       .  A
C2979      F2984   1.358       .  S
C2980      C2981   1.411       .  A
C2980      H2985   1.083       .  S
C2981      C2982   1.406       .  A
C2982      F2986   1.357       .  S
C2983      C2988   1.401       .  A
C2983      C2992   1.408       .  A
C2988      C2989   1.390       .  A
C2988      F2993   1.358       .  S
C2989      C2990   1.408       .  A
C2989      H2994   1.084       .  S
C2990      C2991   1.404       .  A
C2991      C2992   1.400       .  A
C2991      F2995   1.357       .  S
C2992      H2996   1.083       .  S
C2997      C2998   1.401       .  A
C2997      C3002   1.397       .  A
C2997      H3007   1.084       .  S
C2998      C3003   1.482       .  S
C2998      C2999   1.406       .  A
C2999      C3000   1.400       .  A
C2999      F3004   1.357       .  S
C3000      C3001   1.406       .  A
C3000      H3005   1.083       .  S
C3001      C3002   1.416       .  A
C3002      F3006   1.358       .  S
C3003      C3008   1.404       .  A
C3003      C3012   1.403       .  A
C3008      C3009   1.397       .  A
C3008      F3013   1.358       .  S
C3009      C3010   1.409       .  A
C3009      H3014   1.083       .  S
C3010      C3011   1.412       .  A
C3011      C3012   1.400       .  A
C3011      F3015   1.357       .  S
C3012      H3016   1.083       .  S
C3017      C3018   1.401       .  A
C3017      C3022   1.398       .  A
C3017      H3027   1.083       .  S
C3018      C3023   1.473       .  S
C3018      C3019   1.402       .  A
C3019      C3020   1.395       .  A
C3019      F3024   1.357       .  S
C3020      C3021   1.407       .  A
C3020      H3025   1.083       .  S
C3021      C3022   1.410       .  A
C3022      F3026   1.358       .  S
C3023      C3028   1.399       .  A
C3023      C3032   1.403       .  A
C3028      C3029   1.396       .  A
C3028      F3033   1.358       .  S
C3029      C3030   1.412       .  A
C3029      H3034   1.083       .  S
C3030      C3031   1.409       .  A
C3031      C3032   1.400       .  A
C3031      F3035   1.357       .  S
C3032      H3036   1.083       .  S
C3037      C3038   1.399       .  A
C3037      C3042   1.394       .  A
C3037      H3047   1.083       .  S
C3038      C3043   1.486       .  S
C3038      C3039   1.412       .  A
C3039      C3040   1.403       .  A
C3039      F3044   1.357       .  S
C3040      C3041   1.404       .  A
C3040      H3045   1.083       .  S
C3041      C3042   1.413       .  A
C3042      F3046   1.358       .  S
C3043      C3048   1.401       .  A
C3043      C3052   1.410       .  A
C3048      C3049   1.394       .  A
C3048      F3053   1.358       .  S
C3049      C3050   1.411       .  A
C3049      H3054   1.083       .  S
C3050      C3051   1.406       .  A
C3051      C3052   1.405       .  A
C3051      F3055   1.357       .  S
C3052      H3056   1.083       .  S
C3057      C3058   1.402       .  A
C3057      C3062   1.395       .  A
C3057      H3067   1.084       .  S
C3058      C3063   1.475       .  S
C3058      C3059   1.404       .  A
C3059      C3060   1.403       .  A
C3059      F3064   1.357       .  S
C3060      C3061   1.406       .  A
C3060      H3065   1.084       .  S
C3061      C3062   1.404       .  A
C3062      F3066   1.358       .  S
C3063      C3068   1.404       .  A
C3063      C3072   1.400       .  A
C3068      C3069   1.405       .  A
C3068      F3073   1.357       .  S
C3069      C3070   1.408       .  A
C3069      H3074   1.083       .  S
C3070      C3071   1.407       .  A
C3071      C3072   1.393       .  A
C3071      F3075   1.357       .  S
C3072      H3076   1.084       .  S
C3077      C3078   1.407       .  A
C3077      C3082   1.399       .  A
C3077      H3087   1.083       .  S
C3078      C3083   1.473       .  S
C3078      C3079   1.400       .  A
C3079      C3080   1.391       .  A
C3079      F3084   1.358       .  S
C3080      C3081   1.407       .  A
C3080      H3085   1.084       .  S
C3081      C3082   1.404       .  A
C3082      F3086   1.357       .  S
C3083      C3088   1.397       .  A
C3083      C3092   1.409       .  A
C3088      C3089   1.384       .  A
C3088      F3093   1.358       .  S
C3089      C3090   1.411       .  A
C3089      H3094   1.083       .  S
C3090      C3091   1.406       .  A
C3091      C3092   1.402       .  A
C3091      F3095   1.357       .  S
C3092      H3096   1.083       .  S
C3097      C3098   1.405       .  A
C3097      C3102   1.401       .  A
C3097      H3107   1.083       .  S
C3098      C3103   1.486       .  S
C3098      C3099   1.405       .  A
C3099      C3100   1.398       .  A
C3099      F3104   1.357       .  S
C3100      C3101   1.410       .  A
C3100      H3105   1.083       .  S
C3101      C3102   1.411       .  A
C3102      F3106   1.357       .  S
C3103      C3108   1.406       .  A
C3103      C3112   1.402       .  A
C3108      C3109   1.404       .  A
C3108      F3113   1.357       .  S
C3109      C3110   1.409       .  A
C3109      H3114   1.083       .  S
C3110      C3111   1.413       .  A
C3111      C3112   1.400       .  A
C3111      F3115   1.358       .  S
C3112      H3116   1.084       .  S
C3117      C3118   1.405       .  A
C3117      C3122   1.399       .  A
C3117      H3127   1.083       .  S
C3118      C3123   1.480       .  S
C3118      C3119   1.404       .  A
C3119      C3120   1.395       .  A
C3119      F3124   1.357       .  S
C3120      C3121   1.407       .  A
C3120      H3125   1.083       .  S
C3121      C3122   1.409       .  A
C3122      F3126   1.357       .  S
C3123      C3128   1.404       .  A
C3123      C3132   1.402       .  A
C3128      C3129   1.398       .  A
C3128      F3133   1.358       .  S
C3129      C3130   1.410       .  A
C3129      H3134   1.083       .  S
C3130      C3131   1.411       .  A
C3131      C3132   1.398       .  A
C3131      F3135   1.357       .  S
C3132      H3136   1.083       .  S
C3137      C3138   1.404       .  A
C3137      C3142   1.397       .  A
C3137      H3147   1.083       .  S
C3138      C3143   1.484       .  S
C3138      C3139   1.410       .  A
C3139      C3140   1.401       .  A
C3139      F3144   1.357       .  S
C3140      C3141   1.400       .  A
C3140      H3145   1.083       .  S
C3141      C3142   1.406       .  A
C3142      F3146   1.359       .  S
C3143      C3148   1.405       .  A
C3143      C3152   1.409       .  A
C3148      C3149   1.391       .  A
C3148      F3153   1.358       .  S
C3149      C3150   1.405       .  A
C3149      H3154   1.084       .  S
C3150      C3151   1.407       .  A
C3151      C3152   1.406       .  A
C3151      F3155   1.357       .  S
C3152      H3156   1.083       .  S
C3157      C3158   1.408       .  A
C3157      C3162   1.406       .  A
C3157      H3167   1.083       .  S
C3158      C3163   1.497       .  S
C3158      C3159   1.407       .  A
C3159      C3160   1.399       .  A
C3159      F3164   1.357       .  S
C3160      C3161   1.408       .  A
C3160      H3165   1.083       .  S
C3161      C3162   1.413       .  A
C3162      F3166   1.358       .  S
C3163      C3168   1.411       .  A
C3163      C3172   1.404       .  A
C3168      C3169   1.406       .  A
C3168      F3173   1.357       .  S
C3169      C3170   1.408       .  A
C3169      H3174   1.083       .  S
C3170      C3171   1.413       .  A
C3171      C3172   1.401       .  A
C3171      F3175   1.357       .  S
C3172      H3176   1.083       .  S
C3177      C3178   1.397   1_556  A
C3177      C3182   1.391   1_556  A
C3177      H3187   1.084       .  S
C3178      C3183   1.470   1_554  S
C3178      C3179   1.407       .  A
C3179      C3180   1.397       .  A
C3179      F3184   1.357       .  S
C3180      C3181   1.403       .  A
C3180      H3185   1.083       .  S
C3181      C3182   1.413       .  A
C3182      F3186   1.358       .  S
C3183      C3188   1.408       .  A
C3183      C3192   1.396       .  A
C3188      C3189   1.400       .  A
C3188      F3193   1.358       .  S
C3189      C3190   1.403       .  A
C3189      H3194   1.083       .  S
C3190      C3191   1.411       .  A
C3191      C3192   1.388       .  A
C3191      F3195   1.357       .  S
C3192      H3196   1.084   1_556  S
C3197      C3198   1.407       .  A
C3197      C3202   1.405       .  A
C3197      H3207   1.083       .  S
C3198      C3203   1.492       .  S
C3198      C3199   1.405       .  A
C3199      C3200   1.400       .  A
C3199      F3204   1.357       .  S
C3200      C3201   1.410       .  A
C3200      H3205   1.083       .  S
C3201      C3202   1.411       .  A
C3202      F3206   1.357       .  S
C3203      C3208   1.407       .  A
C3203      C3212   1.404       .  A
C3208      C3209   1.402       .  A
C3208      F3213   1.357       .  S
C3209      C3210   1.409       .  A
C3209      H3214   1.083       .  S
C3210      C3211   1.414       .  A
C3211      C3212   1.402       .  A
C3211      F3215   1.358       .  S
C3212      H3216   1.083       .  S
C3217      C3218   1.408       .  A
C3217      C3222   1.405       .  A
C3217      H3227   1.083       .  S
C3218      C3223   1.495       .  S
C3218      C3219   1.407       .  A
C3219      C3220   1.402       .  A
C3219      F3224   1.357       .  S
C3220      C3221   1.408       .  A
C3220      H3225   1.083       .  S
C3221      C3222   1.409       .  A
C3222      F3226   1.357       .  S
C3223      C3228   1.408       .  A
C3223      C3232   1.405       .  A
C3228      C3229   1.402       .  A
C3228      F3233   1.356       .  S
C3229      C3230   1.407       .  A
C3229      H3234   1.083       .  S
C3230      C3231   1.416       .  A
C3231      C3232   1.403       .  A
C3231      F3235   1.358       .  S
C3232      H3236   1.083       .  S
C3237      C3238   1.405       .  A
C3237      C3242   1.398       .  A
C3237      H3247   1.083       .  S
C3238      C3243   1.481       .  S
C3238      C3239   1.404       .  A
C3239      C3240   1.397       .  A
C3239      F3244   1.357       .  S
C3240      C3241   1.407       .  A
C3240      H3245   1.083       .  S
C3241      C3242   1.407       .  A
C3242      F3246   1.357       .  S
C3243      C3248   1.401       .  A
C3243      C3252   1.406       .  A
C3248      C3249   1.395       .  A
C3248      F3253   1.358       .  S
C3249      C3250   1.410       .  A
C3249      H3254   1.083       .  S
C3250      C3251   1.410       .  A
C3251      C3252   1.402       .  A
C3251      F3255   1.357       .  S
C3252      H3256   1.083       .  S
C3257      C3258   1.402       .  A
C3257      C3262   1.397       .  A
C3257      H3267   1.083       .  S
C3258      C3263   1.476       .  S
C3258      C3259   1.404       .  A
C3259      C3260   1.398       .  A
C3259      F3264   1.357       .  S
C3260      C3261   1.406       .  A
C3260      H3265   1.083       .  S
C3261      C3262   1.411       .  A
C3262      F3266   1.357       .  S
C3263      C3268   1.399       .  A
C3263      C3272   1.404       .  A
C3268      C3269   1.394       .  A
C3268      F3273   1.358       .  S
C3269      C3270   1.412       .  A
C3269      H3274   1.082       .  S
C3270      C3271   1.410       .  A
C3271      C3272   1.402       .  A
C3271      F3275   1.357       .  S
C3272      H3276   1.083       .  S
C3277      C3278   1.408       .  A
C3277      C3282   1.401       .  A
C3277      H3287   1.083       .  S
C3278      C3283   1.480       .  S
C3278      C3279   1.400       .  A
C3279      C3280   1.393       .  A
C3279      F3284   1.358       .  S
C3280      C3281   1.411       .  A
C3280      H3285   1.084       .  S
C3281      C3282   1.403       .  A
C3282      F3286   1.357       .  S
C3283      C3288   1.401       .  A
C3283      C3292   1.408       .  A
C3288      C3289   1.393       .  A
C3288      F3293   1.358       .  S
C3289      C3290   1.409       .  A
C3289      H3294   1.083       .  S
C3290      C3291   1.407       .  A
C3291      C3292   1.402       .  A
C3291      F3295   1.358       .  S
C3292      H3296   1.083       .  S
C3297      C3298   1.406       .  A
C3297      C3302   1.406       .  A
C3297      H3307   1.083       .  S
C3298      C3303   1.487       .  S
C3298      C3299   1.404       .  A
C3299      C3300   1.398       .  A
C3299      F3304   1.358       .  S
C3300      C3301   1.409       .  A
C3300      H3305   1.083       .  S
C3301      C3302   1.412       .  A
C3302      F3306   1.357       .  S
C3303      C3308   1.405       .  A
C3303      C3312   1.403       .  A
C3308      C3309   1.401       .  A
C3308      F3313   1.357       .  S
C3309      C3310   1.409       .  A
C3309      H3314   1.083       .  S
C3310      C3311   1.413       .  A
C3311      C3312   1.400       .  A
C3311      F3315   1.358       .  S
C3312      H3316   1.083       .  S
C3317      C3318   1.407       .  A
C3317      C3322   1.405       .  A
C3317      H3327   1.083       .  S
C3318      C3323   1.490       .  S
C3318      C3319   1.406       .  A
C3319      C3320   1.398       .  A
C3319      F3324   1.357       .  S
C3320      C3321   1.406       .  A
C3320      H3325   1.083       .  S
C3321      C3322   1.410       .  A
C3322      F3326   1.358       .  S
C3323      C3328   1.407       .  A
C3323      C3332   1.400       .  A
C3328      C3329   1.408       .  A
C3328      F3333   1.358       .  S
C3329      C3330   1.410       .  A
C3329      H3334   1.083       .  S
C3330      C3331   1.417       .  A
C3331      C3332   1.400       .  A
C3331      F3335   1.357       .  S
C3332      H3336   1.084       .  S
C3337      C3338   1.405       .  A
C3337      C3342   1.401       .  A
C3337      H3347   1.083       .  S
C3338      C3343   1.473       .  S
C3338      C3339   1.400       .  A
C3339      C3340   1.389       .  A
C3339      F3344   1.358       .  S
C3340      C3341   1.408       .  A
C3340      H3345   1.083       .  S
C3341      C3342   1.409       .  A
C3342      F3346   1.357       .  S
C3343      C3348   1.405       .  A
C3343      C3352   1.400       .  A
C3348      C3349   1.398       .  A
C3348      F3353   1.357       .  S
C3349      C3350   1.403       .  A
C3349      H3354   1.083       .  S
C3350      C3351   1.410       .  A
C3351      C3352   1.396       .  A
C3351      F3355   1.358       .  S
C3352      H3356   1.084       .  S
C3357      C3358   1.402       .  A
C3357      C3362   1.402       .  A
C3357      H3367   1.083       .  S
C3358      C3363   1.487       .  S
C3358      C3359   1.405       .  A
C3359      C3360   1.401       .  A
C3359      F3364   1.357       .  S
C3360      C3361   1.408       .  A
C3360      H3365   1.083       .  S
C3361      C3362   1.416       .  A
C3362      F3366   1.358       .  S
C3363      C3368   1.404   1_556  A
C3363      C3372   1.405       .  A
C3368      C3369   1.398       .  A
C3368      F3373   1.357       .  S
C3369      C3370   1.410       .  A
C3369      H3374   1.083       .  S
C3370      C3371   1.411   1_554  A
C3371      C3372   1.404       .  A
C3371      F3375   1.357       .  S
C3372      H3376   1.083       .  S
C3377      C3378   1.404       .  A
C3377      C3382   1.398       .  A
C3377      H3387   1.083       .  S
C3378      C3383   1.498       .  S
C3378      C3379   1.413       .  A
C3379      C3380   1.409       .  A
C3379      F3384   1.357       .  S
C3380      C3381   1.405       .  A
C3380      H3385   1.083       .  S
C3381      C3382   1.409       .  A
C3382      F3386   1.358       .  S
C3383      C3388   1.413       .  A
C3383      C3392   1.404       .  A
C3388      C3389   1.410       .  A
C3388      F3393   1.357       .  S
C3389      C3390   1.405       .  A
C3389      H3394   1.083       .  S
C3390      C3391   1.409       .  A
C3391      C3392   1.399       .  A
C3391      F3395   1.358       .  S
C3392      H3396   1.083       .  S
C3397      C3398   1.406       .  A
C3397      C3402   1.401       .  A
C3397      H3407   1.083       .  S
C3398      C3403   1.486       .  S
C3398      C3399   1.405       .  A
C3399      C3400   1.396       .  A
C3399      F3404   1.357       .  S
C3400      C3401   1.409       .  A
C3400      H3405   1.083       .  S
C3401      C3402   1.411       .  A
C3402      F3406   1.357       .  S
C3403      C3408   1.408       .  A
C3403      C3412   1.405       .  A
C3408      C3409   1.398       .  A
C3408      F3413   1.358       .  S
C3409      C3410   1.407       .  A
C3409      H3414   1.083       .  S
C3410      C3411   1.408       .  A
C3411      C3412   1.397       .  A
C3411      F3415   1.357       .  S
C3412      H3416   1.083       .  S
C3417      C3418   1.398       .  A
C3417      C3422   1.391       .  A
C3417      H3427   1.083       .  S
C3418      C3423   1.480       .  S
C3418      C3419   1.409       .  A
C3419      C3420   1.401       .  A
C3419      F3424   1.358       .  S
C3420      C3421   1.407       .  A
C3420      H3425   1.083       .  S
C3421      C3422   1.414       .  A
C3422      F3426   1.357       .  S
C3423      C3428   1.411       .  A
C3423      C3432   1.400       .  A
C3428      C3429   1.400       .  A
C3428      F3433   1.357       .  S
C3429      C3430   1.402       .  A
C3429      H3434   1.083       .  S
C3430      C3431   1.409       .  A
C3431      C3432   1.391       .  A
C3431      F3435   1.358       .  S
C3432      H3436   1.083       .  S
C3437      C3438   1.399       .  A
C3437      C3442   1.396       .  A
C3437      H3447   1.083       .  S
C3438      C3443   1.490       .  S
C3438      C3439   1.413       .  A
C3439      C3440   1.405       .  A
C3439      F3444   1.357       .  S
C3440      C3441   1.404       .  A
C3440      H3445   1.083       .  S
C3441      C3442   1.417       .  A
C3442      F3446   1.358       .  S
C3443      C3448   1.413       .  A
C3443      C3452   1.400       .  A
C3448      C3449   1.405       .  A
C3448      F3453   1.357       .  S
C3449      C3450   1.404       .  A
C3449      H3454   1.083       .  S
C3450      C3451   1.414       .  A
C3451      C3452   1.396       .  A
C3451      F3455   1.358       .  S
C3452      H3456   1.083       .  S
C3457      C3458   1.404       .  A
C3457      C3462   1.393       .  A
C3457      H3467   1.083       .  S
C3458      C3463   1.490       .  S
C3458      C3459   1.411       .  A
C3459      C3460   1.403       .  A
C3459      F3464   1.357       .  S
C3460      C3461   1.406       .  A
C3460      H3465   1.083       .  S
C3461      C3462   1.409       .  A
C3462      F3466   1.358       .  S
C3463      C3468   1.408       .  A
C3463      C3472   1.406       .  A
C3468      C3469   1.396       .  A
C3468      F3473   1.358       .  S
C3469      C3470   1.408       .  A
C3469      H3474   1.083       .  S
C3470      C3471   1.411       .  A
C3471      C3472   1.402       .  A
C3471      F3475   1.357       .  S
C3472      H3476   1.083       .  S
C3477      C3478   1.407       .  A
C3477      C3482   1.404       .  A
C3477      H3487   1.083       .  S
C3478      C3483   1.496       .  S
C3478      C3479   1.409       .  A
C3479      C3480   1.406       .  A
C3479      F3484   1.357       .  S
C3480      C3481   1.405       .  A
C3480      H3485   1.084       .  S
C3481      C3482   1.407       .  A
C3482      F3486   1.358       .  S
C3483      C3488   1.409       .  A
C3483      C3492   1.408       .  A
C3488      C3489   1.403       .  A
C3488      F3493   1.358       .  S
C3489      C3490   1.405       .  A
C3489      H3494   1.084       .  S
C3490      C3491   1.406       .  A
C3491      C3492   1.408       .  A
C3491      F3495   1.357       .  S
C3492      H3496   1.083       .  S
C3497      C3498   1.408       .  A
C3497      C3502   1.401       .  A
C3497      H3507   1.083       .  S
C3498      C3503   1.486       .  S
C3498      C3499   1.403       .  A
C3499      C3500   1.396       .  A
C3499      F3504   1.357       .  S
C3500      C3501   1.408       .  A
C3500      H3505   1.083       .  S
C3501      C3502   1.407       .  A
C3502      F3506   1.358       .  S
C3503      C3508   1.402       .  A
C3503      C3512   1.409       .  A
C3508      C3509   1.396       .  A
C3508      F3513   1.358       .  S
C3509      C3510   1.412       .  A
C3509      H3514   1.083       .  S
C3510      C3511   1.406       .  A
C3511      C3512   1.403       .  A
C3511      F3515   1.357       .  S
C3512      H3516   1.083       .  S
C3517      C3518   1.400       .  A
C3517      C3522   1.393       .  A
C3517      H3527   1.084       .  S
C3518      C3523   1.480       .  S
C3518      C3519   1.406       .  A
C3519      C3520   1.401       .  A
C3519      F3524   1.357       .  S
C3520      C3521   1.408       .  A
C3520      H3525   1.083       .  S
C3521      C3522   1.414       .  A
C3522      F3526   1.358       .  S
C3523      C3528   1.404       .  A
C3523      C3532   1.404       .  A
C3528      C3529   1.392       .  A
C3528      F3533   1.358       .  S
C3529      C3530   1.408       .  A
C3529      H3534   1.083       .  S
C3530      C3531   1.410       .  A
C3531      C3532   1.402       .  A
C3531      F3535   1.357       .  S
C3532      H3536   1.083       .  S
C3537      C3538   1.402       .  A
C3537      C3542   1.397       .  A
C3537      H3547   1.083       .  S
C3538      C3543   1.484       .  S
C3538      C3539   1.405       .  A
C3539      C3540   1.402       .  A
C3539      F3544   1.357       .  S
C3540      C3541   1.410       .  A
C3540      H3545   1.083       .  S
C3541      C3542   1.412       .  A
C3542      F3546   1.357       .  S
C3543      C3548   1.406       .  A
C3543      C3552   1.403       .  A
C3548      C3549   1.399       .  A
C3548      F3553   1.358       .  S
C3549      C3550   1.407       .  A
C3549      H3554   1.083       .  S
C3550      C3551   1.413       .  A
C3551      C3552   1.401       .  A
C3551      F3555   1.357       .  S
C3552      H3556   1.083       .  S
C3557      C3558   1.405       .  A
C3557      C3562   1.407       .  A
C3557      H3567   1.083       .  S
C3558      C3563   1.487       .  S
C3558      C3559   1.405       .  A
C3559      C3560   1.401       .  A
C3559      F3564   1.358       .  S
C3560      C3561   1.406       .  A
C3560      H3565   1.083       .  S
C3561      C3562   1.409       .  A
C3562      F3566   1.357       .  S
C3563      C3568   1.407       .  A
C3563      C3572   1.404       .  A
C3568      C3569   1.406       .  A
C3568      F3573   1.357       .  S
C3569      C3570   1.406       .  A
C3569      H3574   1.084       .  S
C3570      C3571   1.406       .  A
C3571      C3572   1.401       .  A
C3571      F3575   1.358       .  S
C3572      H3576   1.083       .  S
C3577      C3578   1.403       .  A
C3577      C3582   1.400       .  A
C3577      H3587   1.083       .  S
C3578      C3583   1.483       .  S
C3578      C3579   1.406       .  A
C3579      C3580   1.398       .  A
C3579      F3584   1.358       .  S
C3580      C3581   1.409       .  A
C3580      H3585   1.083       .  S
C3581      C3582   1.411       .  A
C3582      F3586   1.357       .  S
C3583      C3588   1.404       .  A
C3583      C3592   1.404       .  A
C3588      C3589   1.398       .  A
C3588      F3593   1.357       .  S
C3589      C3590   1.408       .  A
C3589      H3594   1.083       .  S
C3590      C3591   1.412       .  A
C3591      C3592   1.399       .  A
C3591      F3595   1.358       .  S
C3592      H3596   1.083       .  S
C3597      C3598   1.403       .  A
C3597      C3602   1.400       .  A
C3597      H3607   1.083       .  S
C3598      C3603   1.492       .  S
C3598      C3599   1.407       .  A
C3599      C3600   1.406       .  A
C3599      F3604   1.358       .  S
C3600      C3601   1.411       .  A
C3600      H3605   1.083       .  S
C3601      C3602   1.414       .  A
C3602      F3606   1.357       .  S
C3603      C3608   1.408       .  A
C3603      C3612   1.405       .  A
C3608      C3609   1.401       .  A
C3608      F3613   1.357       .  S
C3609      C3610   1.407       .  A
C3609      H3614   1.083       .  S
C3610      C3611   1.411       .  A
C3611      C3612   1.401       .  A
C3611      F3615   1.357       .  S
C3612      H3616   1.083       .  S
C3617      C3618   1.400       .  A
C3617      C3622   1.397   1_655  A
C3617      H3627   1.084       .  S
C3618      C3623   1.480       .  S
C3618      C3619   1.406   1_655  A
C3619      C3620   1.399       .  A
C3619      F3624   1.357       .  S
C3620      C3621   1.405       .  A
C3620      H3625   1.083       .  S
C3621      C3622   1.415       .  A
C3622      F3626   1.357       .  S
C3623      C3628   1.405       .  A
C3623      C3632   1.401       .  A
C3628      C3629   1.401       .  A
C3628      F3633   1.358       .  S
C3629      C3630   1.409       .  A
C3629      H3634   1.083       .  S
C3630      C3631   1.413       .  A
C3631      C3632   1.397       .  A
C3631      F3635   1.356       .  S
C3632      H3636   1.084   1_655  S
C3637      C3638   1.400       .  A
C3637      C3642   1.397       .  A
C3637      H3647   1.084       .  S
C3638      C3643   1.481       .  S
C3638      C3639   1.405       .  A
C3639      C3640   1.403       .  A
C3639      F3644   1.358       .  S
C3640      C3641   1.409       .  A
C3640      H3645   1.083       .  S
C3641      C3642   1.415       .  A
C3642      F3646   1.357       .  S
C3643      C3648   1.404   1_554  A
C3643      C3652   1.405       .  A
C3648      C3649   1.394       .  A
C3648      F3653   1.358       .  S
C3649      C3650   1.407       .  A
C3649      H3654   1.083       .  S
C3650      C3651   1.410   1_556  A
C3651      C3652   1.402       .  A
C3651      F3655   1.357       .  S
C3652      H3656   1.083       .  S
C3657      C3658   1.405       .  A
C3657      C3662   1.404       .  A
C3657      H3667   1.083       .  S
C3658      C3663   1.489       .  S
C3658      C3659   1.405   1_556  A
C3659      C3660   1.401       .  A
C3659      F3664   1.358       .  S
C3660      C3661   1.412       .  A
C3660      H3665   1.083       .  S
C3661      C3662   1.412   1_554  A
C3662      F3666   1.357       .  S
C3663      C3668   1.407       .  A
C3663      C3672   1.402       .  A
C3668      C3669   1.405       .  A
C3668      F3673   1.357   1_556  S
C3669      C3670   1.409       .  A
C3669      H3674   1.083       .  S
C3670      C3671   1.415       .  A
C3671      C3672   1.400       .  A
C3671      F3675   1.357       .  S
C3672      H3676   1.083       .  S
C3677      C3678   1.408       .  A
C3677      C3682   1.399       .  A
C3677      H3687   1.083       .  S
C3678      C3683   1.477       .  S
C3678      C3679   1.403       .  A
C3679      C3680   1.390       .  A
C3679      F3684   1.357       .  S
C3680      C3681   1.403       .  A
C3680      H3685   1.084       .  S
C3681      C3682   1.406       .  A
C3682      F3686   1.358       .  S
C3683      C3688   1.402       .  A
C3683      C3692   1.407       .  A
C3688      C3689   1.391       .  A
C3688      F3693   1.358       .  S
C3689      C3690   1.408       .  A
C3689      H3694   1.083       .  S
C3690      C3691   1.407       .  A
C3691      C3692   1.399       .  A
C3691      F3695   1.357       .  S
C3692      H3696   1.083       .  S
C3697      C3698   1.403       .  A
C3697      C3702   1.398       .  A
C3697      H3707   1.084       .  S
C3698      C3703   1.477       .  S
C3698      C3699   1.404       .  A
C3699      C3700   1.403       .  A
C3699      F3704   1.356       .  S
C3700      C3701   1.404       .  A
C3700      H3705   1.083       .  S
C3701      C3702   1.407       .  A
C3702      F3706   1.358       .  S
C3703      C3708   1.405       .  A
C3703      C3712   1.401       .  A
C3708      C3709   1.404       .  A
C3708      F3713   1.356       .  S
C3709      C3710   1.405       .  A
C3709      H3714   1.083       .  S
C3710      C3711   1.407       .  A
C3711      C3712   1.395       .  A
C3711      F3715   1.358   1_455  S
C3712      H3716   1.084       .  S
C3717      C3718   1.408       .  A
C3717      C3722   1.402       .  A
C3717      H3727   1.083       .  S
C3718      C3723   1.474       .  S
C3718      C3719   1.398       .  A
C3719      C3720   1.391       .  A
C3719      F3724   1.358       .  S
C3720      C3721   1.410       .  A
C3720      H3725   1.084       .  S
C3721      C3722   1.406       .  A
C3722      F3726   1.357       .  S
C3723      C3728   1.409       .  A
C3723      C3732   1.395       .  A
C3728      C3729   1.403       .  A
C3728      F3733   1.358       .  S
C3729      C3730   1.405       .  A
C3729      H3734   1.083       .  S
C3730      C3731   1.414       .  A
C3731      C3732   1.391       .  A
C3731      F3735   1.358       .  S
C3732      H3736   1.084       .  S
C3737      C3738   1.404       .  A
C3737      C3742   1.397       .  A
C3737      H3747   1.083       .  S
C3738      C3743   1.491       .  S
C3738      C3739   1.408       .  A
C3739      C3740   1.403       .  A
C3739      F3744   1.357       .  S
C3740      C3741   1.408       .  A
C3740      H3745   1.083       .  S
C3741      C3742   1.411       .  A
C3742      F3746   1.358       .  S
C3743      C3748   1.406       .  A
C3743      C3752   1.406       .  A
C3748      C3749   1.397       .  A
C3748      F3753   1.358       .  S
C3749      C3750   1.411       .  A
C3749      H3754   1.083       .  S
C3750      C3751   1.411       .  A
C3751      C3752   1.405       .  A
C3751      F3755   1.357       .  S
C3752      H3756   1.083       .  S
C3757      C3758   1.405       .  A
C3757      C3762   1.398       .  A
C3757      H3767   1.083       .  S
C3758      C3763   1.471       .  S
C3758      C3759   1.400       .  A
C3759      C3760   1.390       .  A
C3759      F3764   1.357       .  S
C3760      C3761   1.407       .  A
C3760      H3765   1.083       .  S
C3761      C3762   1.407       .  A
C3762      F3766   1.357       .  S
C3763      C3768   1.400       .  A
C3763      C3772   1.405       .  A
C3768      C3769   1.393       .  A
C3768      F3773   1.358       .  S
C3769      C3770   1.407       .  A
C3769      H3774   1.083       .  S
C3770      C3771   1.406       .  A
C3771      C3772   1.398       .  A
C3771      F3775   1.357       .  S
C3772      H3776   1.083       .  S
C3777      C3778   1.404       .  A
C3777      C3782   1.401       .  A
C3777      H3787   1.083       .  S
C3778      C3783   1.482       .  S
C3778      C3779   1.403       .  A
C3779      C3780   1.395       .  A
C3779      F3784   1.357       .  S
C3780      C3781   1.409       .  A
C3780      H3785   1.082       .  S
C3781      C3782   1.412       .  A
C3782      F3786   1.357       .  S
C3783      C3788   1.405       .  A
C3783      C3792   1.404       .  A
C3788      C3789   1.396       .  A
C3788      F3793   1.358       .  S
C3789      C3790   1.407       .  A
C3789      H3794   1.083       .  S
C3790      C3791   1.408       .  A
C3791      C3792   1.399       .  A
C3791      F3795   1.357       .  S
C3792      H3796   1.083       .  S
C3797      C3798   1.410       .  A
C3797      C3802   1.404       .  A
C3797      H3807   1.083   1_655  S
C3798      C3803   1.481       .  S
C3798      C3799   1.399       .  A
C3799      C3800   1.389       .  A
C3799      F3804   1.358       .  S
C3800      C3801   1.412       .  A
C3800      H3805   1.083       .  S
C3801      C3802   1.407       .  A
C3802      F3806   1.357   1_655  S
C3803      C3808   1.403   1_655  A
C3803      C3812   1.410       .  A
C3808      C3809   1.391       .  A
C3808      F3813   1.357       .  S
C3809      C3810   1.406       .  A
C3809      H3814   1.084       .  S
C3810      C3811   1.401   1_455  A
C3811      C3812   1.400       .  A
C3811      F3815   1.357       .  S
C3812      H3816   1.083       .  S
C3817      C3818   1.402       .  A
C3817      C3822   1.400       .  A
C3817      H3827   1.084       .  S
C3818      C3823   1.489       .  S
C3818      C3819   1.406       .  A
C3819      C3820   1.408       .  A
C3819      F3824   1.358       .  S
C3820      C3821   1.412       .  A
C3820      H3825   1.083       .  S
C3821      C3822   1.414       .  A
C3822      F3826   1.357       .  S
C3823      C3828   1.405       .  A
C3823      C3832   1.405       .  A
C3828      C3829   1.399       .  A
C3828      F3833   1.357       .  S
C3829      C3830   1.409       .  A
C3829      H3834   1.083       .  S
C3830      C3831   1.413       .  A
C3831      C3832   1.405       .  A
C3831      F3835   1.357       .  S
C3832      H3836   1.083       .  S
C3837      C3838   1.406       .  A
C3837      C3842   1.402       .  A
C3837      H3847   1.083       .  S
C3838      C3843   1.489       .  S
C3838      C3839   1.405       .  A
C3839      C3840   1.400       .  A
C3839      F3844   1.358       .  S
C3840      C3841   1.411       .  A
C3840      H3845   1.083       .  S
C3841      C3842   1.410       .  A
C3842      F3846   1.357       .  S
C3843      C3848   1.408       .  A
C3843      C3852   1.401       .  A
C3848      C3849   1.405       .  A
C3848      F3853   1.357       .  S
C3849      C3850   1.409       .  A
C3849      H3854   1.083       .  S
C3850      C3851   1.414       .  A
C3851      C3852   1.398       .  A
C3851      F3855   1.357       .  S
C3852      H3856   1.083       .  S
C3857      C3858   1.408       .  A
C3857      C3862   1.402       .  A
C3857      H3867   1.083       .  S
C3858      C3863   1.477       .  S
C3858      C3859   1.402       .  A
C3859      C3860   1.389       .  A
C3859      F3864   1.358       .  S
C3860      C3861   1.407       .  A
C3860      H3865   1.083       .  S
C3861      C3862   1.405       .  A
C3862      F3866   1.357       .  S
C3863      C3868   1.407       .  A
C3863      C3872   1.400       .  A
C3868      C3869   1.396       .  A
C3868      F3873   1.357       .  S
C3869      C3870   1.405       .  A
C3869      H3874   1.083       .  S
C3870      C3871   1.414       .  A
C3871      C3872   1.394       .  A
C3871      F3875   1.358       .  S
C3872      H3876   1.083       .  S
C3877      C3878   1.405       .  A
C3877      C3882   1.401       .  A
C3877      H3887   1.083       .  S
C3878      C3883   1.483       .  S
C3878      C3879   1.406       .  A
C3879      C3880   1.402       .  A
C3879      F3884   1.357       .  S
C3880      C3881   1.404       .  A
C3880      H3885   1.084       .  S
C3881      C3882   1.405       .  A
C3882      F3886   1.357       .  S
C3883      C3888   1.406       .  A
C3883      C3892   1.406       .  A
C3888      C3889   1.401       .  A
C3888      F3893   1.357       .  S
C3889      C3890   1.404       .  A
C3889      H3894   1.084       .  S
C3890      C3891   1.404       .  A
C3891      C3892   1.399       .  A
C3891      F3895   1.358       .  S
C3892      H3896   1.083       .  S
C3897      C3898   1.405       .  A
C3897      C3902   1.397       .  A
C3897      H3907   1.083       .  S
C3898      C3903   1.480       .  S
C3898      C3899   1.407       .  A
C3899      C3900   1.398       .  A
C3899      F3904   1.357       .  S
C3900      C3901   1.401       .  A
C3900      H3905   1.083       .  S
C3901      C3902   1.402       .  A
C3902      F3906   1.357       .  S
C3903      C3908   1.402       .  A
C3903      C3912   1.406       .  A
C3908      C3909   1.395       .  A
C3908      F3913   1.359       .  S
C3909      C3910   1.409       .  A
C3909      H3914   1.084       .  S
C3910      C3911   1.406       .  A
C3911      C3912   1.401       .  A
C3911      F3915   1.357       .  S
C3912      H3916   1.083       .  S
C3917      C3918   1.405       .  A
C3917      C3922   1.401       .  A
C3917      H3927   1.082       .  S
C3918      C3923   1.494       .  S
C3918      C3919   1.409       .  A
C3919      C3920   1.400       .  A
C3919      F3924   1.358       .  S
C3920      C3921   1.409       .  A
C3920      H3925   1.083       .  S
C3921      C3922   1.412       .  A
C3922      F3926   1.357       .  S
C3923      C3928   1.411       .  A
C3923      C3932   1.405       .  A
C3928      C3929   1.404       .  A
C3928      F3933   1.357       .  S
C3929      C3930   1.407       .  A
C3929      H3934   1.083       .  S
C3930      C3931   1.409       .  A
C3931      C3932   1.397       .  A
C3931      F3935   1.357       .  S
C3932      H3936   1.083       .  S
C3937      C3938   1.404       .  A
C3937      C3942   1.405       .  A
C3937      H3947   1.083       .  S
C3938      C3943   1.478       .  S
C3938      C3939   1.403       .  A
C3939      C3940   1.396       .  A
C3939      F3944   1.357       .  S
C3940      C3941   1.404       .  A
C3940      H3945   1.084       .  S
C3941      C3942   1.409       .  A
C3942      F3946   1.357       .  S
C3943      C3948   1.402   1_655  A
C3943      C3952   1.404   1_655  A
C3948      C3949   1.395       .  A
C3948      F3953   1.358   1_455  S
C3949      C3950   1.403       .  A
C3949      H3954   1.084       .  S
C3950      C3951   1.411       .  A
C3951      C3952   1.407       .  A
C3951      F3955   1.357       .  S
C3952      H3956   1.083       .  S
C3957      C3958   1.403       .  A
C3957      C3962   1.400       .  A
C3957      H3967   1.084       .  S
C3958      C3963   1.486       .  S
C3958      C3959   1.405       .  A
C3959      C3960   1.402       .  A
C3959      F3964   1.358       .  S
C3960      C3961   1.409       .  A
C3960      H3965   1.083       .  S
C3961      C3962   1.413       .  A
C3962      F3966   1.357       .  S
C3963      C3968   1.406       .  A
C3963      C3972   1.404       .  A
C3968      C3969   1.398       .  A
C3968      F3973   1.357       .  S
C3969      C3970   1.408       .  A
C3969      H3974   1.083       .  S
C3970      C3971   1.411       .  A
C3971      C3972   1.400       .  A
C3971      F3975   1.357       .  S
C3972      H3976   1.083       .  S
C3977      C3978   1.405       .  A
C3977      C3982   1.398       .  A
C3977      H3987   1.083       .  S
C3978      C3983   1.477       .  S
C3978      C3979   1.402       .  A
C3979      C3980   1.394       .  A
C3979      F3984   1.358       .  S
C3980      C3981   1.411       .  A
C3980      H3985   1.083       .  S
C3981      C3982   1.408       .  A
C3982      F3986   1.356       .  S
C3983      C3988   1.408       .  A
C3983      C3992   1.401       .  A
C3988      C3989   1.400       .  A
C3988      F3993   1.358       .  S
C3989      C3990   1.404       .  A
C3989      H3994   1.083       .  S
C3990      C3991   1.406       .  A
C3991      C3992   1.390       .  A
C3991      F3995   1.358       .  S
C3992      H3996   1.084       .  S
C3997      C3998   1.403       .  A
C3997      C4002   1.400       .  A
C3997      H4007   1.084       .  S
C3998      C4003   1.487       .  S
C3998      C3999   1.406       .  A
C3999      C4000   1.400       .  A
C3999      F4004   1.357       .  S
C4000      C4001   1.406       .  A
C4000      H4005   1.083       .  S
C4001      C4002   1.416       .  A
C4002      F4006   1.358       .  S
C4003      C4008   1.405       .  A
C4003      C4012   1.406       .  A
C4008      C4009   1.397       .  A
C4008      F4013   1.358       .  S
C4009      C4010   1.409       .  A
C4009      H4014   1.083       .  S
C4010      C4011   1.410       .  A
C4011      C4012   1.404       .  A
C4011      F4015   1.357       .  S
C4012      H4016   1.083       .  S
C4017      C4018   1.402       .  A
C4017      C4022   1.398       .  A
C4017      H4027   1.083       .  S
C4018      C4023   1.490       .  S
C4018      C4019   1.409       .  A
C4019      C4020   1.406       .  A
C4019      F4024   1.357       .  S
C4020      C4021   1.407       .  A
C4020      H4025   1.083       .  S
C4021      C4022   1.412       .  A
C4022      F4026   1.358       .  S
C4023      C4028   1.406       .  A
C4023      C4032   1.405       .  A
C4028      C4029   1.399       .  A
C4028      F4033   1.357       .  S
C4029      C4030   1.410       .  A
C4029      H4034   1.083       .  S
C4030      C4031   1.412       .  A
C4031      C4032   1.405       .  A
C4031      F4035   1.357       .  S
C4032      H4036   1.083       .  S
C4037      C4038   1.407       .  A
C4037      C4042   1.400       .  A
C4037      H4047   1.083       .  S
C4038      C4043   1.481       .  S
C4038      C4039   1.402       .  A
C4039      C4040   1.393       .  A
C4039      F4044   1.358       .  S
C4040      C4041   1.410       .  A
C4040      H4045   1.083       .  S
C4041      C4042   1.407       .  A
C4042      F4046   1.357       .  S
C4043      C4048   1.403       .  A
C4043      C4052   1.408       .  A
C4048      C4049   1.394       .  A
C4048      F4053   1.358       .  S
C4049      C4050   1.408       .  A
C4049      H4054   1.084       .  S
C4050      C4051   1.404       .  A
C4051      C4052   1.400       .  A
C4051      F4055   1.357       .  S
C4052      H4056   1.083       .  S
C4057      C4058   1.402       .  A
C4057      C4062   1.399       .  A
C4057      H4067   1.084       .  S
C4058      C4063   1.483   1_556  S
C4058      C4059   1.404       .  A
C4059      C4060   1.401       .  A
C4059      F4064   1.358       .  S
C4060      C4061   1.410       .  A
C4060      H4065   1.083       .  S
C4061      C4062   1.414       .  A
C4062      F4066   1.357       .  S
C4063      C4068   1.403       .  A
C4063      C4072   1.406   1_554  A
C4068      C4069   1.395       .  A
C4068      F4073   1.358       .  S
C4069      C4070   1.408       .  A
C4069      H4074   1.083       .  S
C4070      C4071   1.409   1_554  A
C4071      C4072   1.404       .  A
C4071      F4075   1.357       .  S
C4072      H4076   1.083       .  S
C4077      C4078   1.400   1_556  A
C4077      C4082   1.397       .  A
C4077      H4087   1.084       .  S
C4078      C4083   1.481       .  S
C4078      C4079   1.404       .  A
C4079      C4080   1.403       .  A
C4079      F4084   1.357       .  S
C4080      C4081   1.408   1_554  A
C4080      H4085   1.083       .  S
C4081      C4082   1.414       .  A
C4082      F4086   1.358       .  S
C4083      C4088   1.402       .  A
C4083      C4092   1.404       .  A
C4088      C4089   1.397       .  A
C4088      F4093   1.358       .  S
C4089      C4090   1.411       .  A
C4089      H4094   1.083       .  S
C4090      C4091   1.412       .  A
C4091      C4092   1.402       .  A
C4091      F4095   1.357       .  S
C4092      H4096   1.083       .  S
C4097      C4098   1.405       .  A
C4097      C4102   1.401       .  A
C4097      H4107   1.083       .  S
C4098      C4103   1.484       .  S
C4098      C4099   1.403       .  A
C4099      C4100   1.398       .  A
C4099      F4104   1.357       .  S
C4100      C4101   1.409       .  A
C4100      H4105   1.083       .  S
C4101      C4102   1.412       .  A
C4102      F4106   1.358       .  S
C4103      C4108   1.406       .  A
C4103      C4112   1.402       .  A
C4108      C4109   1.401       .  A
C4108      F4113   1.358       .  S
C4109      C4110   1.407       .  A
C4109      H4114   1.083       .  S
C4110      C4111   1.412       .  A
C4111      C4112   1.400       .  A
C4111      F4115   1.357       .  S
C4112      H4116   1.083       .  S
C4117      C4118   1.408       .  A
C4117      C4122   1.401       .  A
C4117      H4127   1.083       .  S
C4118      C4123   1.482       .  S
C4118      C4119   1.403       .  A
C4119      C4120   1.392       .  A
C4119      F4124   1.358       .  S
C4120      C4121   1.409       .  A
C4120      H4125   1.083       .  S
C4121      C4122   1.405       .  A
C4122      F4126   1.357       .  S
C4123      C4128   1.403       .  A
C4123      C4132   1.408       .  A
C4128      C4129   1.393       .  A
C4128      F4133   1.357       .  S
C4129      C4130   1.406       .  A
C4129      H4134   1.083       .  S
C4130      C4131   1.407       .  A
C4131      C4132   1.401       .  A
C4131      F4135   1.358       .  S
C4132      H4136   1.083       .  S
C4137      C4138   1.406       .  A
C4137      C4142   1.404       .  A
C4137      H4147   1.083       .  S
C4138      C4143   1.480       .  S
C4138      C4139   1.400       .  A
C4139      C4140   1.396       .  A
C4139      F4144   1.357       .  S
C4140      C4141   1.409       .  A
C4140      H4145   1.083       .  S
C4141      C4142   1.408       .  A
C4142      F4146   1.357       .  S
C4143      C4148   1.399       .  A
C4143      C4152   1.408       .  A
C4148      C4149   1.393       .  A
C4148      F4153   1.358       .  S
C4149      C4150   1.411       .  A
C4149      H4154   1.083       .  S
C4150      C4151   1.407       .  A
C4151      C4152   1.406       .  A
C4151      F4155   1.357       .  S
C4152      H4156   1.083       .  S
C4157      C4158   1.400       .  A
C4157      C4162   1.393       .  A
C4157      H4167   1.083       .  S
C4158      C4163   1.483       .  S
C4158      C4159   1.409       .  A
C4159      C4160   1.403       .  A
C4159      F4164   1.358       .  S
C4160      C4161   1.407       .  A
C4160      H4165   1.083       .  S
C4161      C4162   1.411       .  A
C4162      F4166   1.358       .  S
C4163      C4168   1.404       .  A
C4163      C4172   1.404       .  A
C4168      C4169   1.398       .  A
C4168      F4173   1.358       .  S
C4169      C4170   1.409       .  A
C4169      H4174   1.083       .  S
C4170      C4171   1.411       .  A
C4171      C4172   1.398       .  A
C4171      F4175   1.357       .  S
C4172      H4176   1.083       .  S
C4177      C4178   1.406       .  A
C4177      C4182   1.404       .  A
C4177      H4187   1.083       .  S
C4178      C4183   1.481       .  S
C4178      C4179   1.401       .  A
C4179      C4180   1.394       .  A
C4179      F4184   1.358       .  S
C4180      C4181   1.409       .  A
C4180      H4185   1.083       .  S
C4181      C4182   1.412       .  A
C4182      F4186   1.358       .  S
C4183      C4188   1.404       .  A
C4183      C4192   1.403       .  A
C4188      C4189   1.402       .  A
C4188      F4193   1.357       .  S
C4189      C4190   1.408       .  A
C4189      H4194   1.083       .  S
C4190      C4191   1.411       .  A
C4191      C4192   1.397       .  A
C4191      F4195   1.358       .  S
C4192      H4196   1.084       .  S
C4197      C4198   1.398       .  A
C4197      C4202   1.393       .  A
C4197      H4207   1.083       .  S
C4198      C4203   1.476       .  S
C4198      C4199   1.407       .  A
C4199      C4200   1.399       .  A
C4199      F4204   1.357   1_655  S
C4200      C4201   1.405       .  A
C4200      H4205   1.083       .  S
C4201      C4202   1.414       .  A
C4202      F4206   1.358       .  S
C4203      C4208   1.409       .  A
C4203      C4212   1.398       .  A
C4208      C4209   1.401   1_655  A
C4208      F4213   1.357       .  S
C4209      C4210   1.405       .  A
C4209      H4214   1.083       .  S
C4210      C4211   1.411       .  A
C4211      C4212   1.390   1_455  A
C4211      F4215   1.357       .  S
C4212      H4216   1.084       .  S
C4217      C4218   1.404       .  A
C4217      C4222   1.401       .  A
C4217      H4227   1.083       .  S
C4218      C4223   1.492       .  S
C4218      C4219   1.408       .  A
C4219      C4220   1.405       .  A
C4219      F4224   1.357       .  S
C4220      C4221   1.411       .  A
C4220      H4225   1.083       .  S
C4221      C4222   1.412       .  A
C4222      F4226   1.357       .  S
C4223      C4228   1.408       .  A
C4223      C4232   1.405       .  A
C4228      C4229   1.403       .  A
C4228      F4233   1.357       .  S
C4229      C4230   1.408       .  A
C4229      H4234   1.083       .  S
C4230      C4231   1.412       .  A
C4231      C4232   1.401       .  A
C4231      F4235   1.358       .  S
C4232      H4236   1.083       .  S
C4237      C4238   1.405       .  A
C4237      C4242   1.406       .  A
C4237      H4247   1.083       .  S
C4238      C4243   1.492       .  S
C4238      C4239   1.404       .  A
C4239      C4240   1.403       .  A
C4239      F4244   1.358       .  S
C4240      C4241   1.414       .  A
C4240      H4245   1.083       .  S
C4241      C4242   1.412       .  A
C4242      F4246   1.356       .  S
C4243      C4248   1.406       .  A
C4243      C4252   1.405       .  A
C4248      C4249   1.403       .  A
C4248      F4253   1.357       .  S
C4249      C4250   1.407       .  A
C4249      H4254   1.083       .  S
C4250      C4251   1.413       .  A
C4251      C4252   1.403       .  A
C4251      F4255   1.358       .  S
C4252      H4256   1.083       .  S
C4257      C4258   1.405       .  A
C4257      C4262   1.408       .  A
C4257      H4267   1.083       .  S
C4258      C4263   1.482       .  S
C4258      C4259   1.404       .  A
C4259      C4260   1.395       .  A
C4259      F4264   1.358       .  S
C4260      C4261   1.406       .  A
C4260      H4265   1.084       .  S
C4261      C4262   1.409       .  A
C4262      F4266   1.356       .  S
C4263      C4268   1.405       .  A
C4263      C4272   1.401       .  A
C4268      C4269   1.408       .  A
C4268      F4273   1.357       .  S
C4269      C4270   1.409       .  A
C4269      H4274   1.083       .  S
C4270      C4271   1.409       .  A
C4271      C4272   1.397       .  A
C4271      F4275   1.358       .  S
C4272      H4276   1.084       .  S
C4277      C4278   1.407       .  A
C4277      C4282   1.401       .  A
C4277      H4287   1.083       .  S
C4278      C4283   1.494       .  S
C4278      C4279   1.407       .  A
C4279      C4280   1.402       .  A
C4279      F4284   1.357       .  S
C4280      C4281   1.410       .  A
C4280      H4285   1.083       .  S
C4281      C4282   1.410       .  A
C4282      F4286   1.357       .  S
C4283      C4288   1.409   1_655  A
C4283      C4292   1.406       .  A
C4288      C4289   1.399       .  A
C4288      F4293   1.357       .  S
C4289      C4290   1.405       .  A
C4289      H4294   1.083       .  S
C4290      C4291   1.413       .  A
C4291      C4292   1.403   1_455  A
C4291      F4295   1.358       .  S
C4292      H4296   1.083       .  S
C4297      C4298   1.407       .  A
C4297      C4302   1.403       .  A
C4297      H4307   1.083       .  S
C4298      C4303   1.476   1_656  S
C4298      C4299   1.399   1_556  A
C4299      C4300   1.389   1_554  A
C4299      F4304   1.357       .  S
C4300      C4301   1.408       .  A
C4300      H4305   1.083       .  S
C4301      C4302   1.406       .  A
C4302      F4306   1.357       .  S
C4303      C4308   1.402       .  A
C4303      C4312   1.406   1_455  A
C4308      C4309   1.395       .  A
C4308      F4313   1.357   1_554  S
C4309      C4310   1.407       .  A
C4309      H4314   1.083       .  S
C4310      C4311   1.406       .  A
C4311      C4312   1.398   1_455  A
C4311      F4315   1.358       .  S
C4312      H4316   1.083       .  S
C4317      C4318   1.397       .  A
C4317      C4322   1.394       .  A
C4317      H4327   1.084       .  S
C4318      C4323   1.473       .  S
C4318      C4319   1.407       .  A
C4319      C4320   1.402       .  A
C4319      F4324   1.357   1_655  S
C4320      C4321   1.404       .  A
C4320      H4325   1.083   1_655  S
C4321      C4322   1.411       .  A
C4322      F4326   1.358       .  S
C4323      C4328   1.408       .  A
C4323      C4332   1.396   1_655  A
C4328      C4329   1.401       .  A
C4328      F4333   1.357       .  S
C4329      C4330   1.404   1_655  A
C4329      H4334   1.083       .  S
C4330      C4331   1.414       .  A
C4331      C4332   1.393       .  A
C4331      F4335   1.358       .  S
C4332      H4336   1.084       .  S
C4337      C4338   1.405       .  A
C4337      C4342   1.401       .  A
C4337      H4347   1.083       .  S
C4338      C4343   1.487       .  S
C4338      C4339   1.406       .  A
C4339      C4340   1.397       .  A
C4339      F4344   1.357       .  S
C4340      C4341   1.408       .  A
C4340      H4345   1.083       .  S
C4341      C4342   1.412       .  A
C4342      F4346   1.357       .  S
C4343      C4348   1.408       .  A
C4343      C4352   1.403       .  A
C4348      C4349   1.402       .  A
C4348      F4353   1.357       .  S
C4349      C4350   1.406       .  A
C4349      H4354   1.083       .  S
C4350      C4351   1.411       .  A
C4351      C4352   1.399       .  A
C4351      F4355   1.358       .  S
C4352      H4356   1.083       .  S
C4357      C4358   1.408       .  A
C4357      C4362   1.404       .  A
C4357      H4367   1.083       .  S
C4358      C4363   1.493       .  S
C4358      C4359   1.407       .  A
C4359      C4360   1.397       .  A
C4359      F4364   1.358       .  S
C4360      C4361   1.410       .  A
C4360      H4365   1.083       .  S
C4361      C4362   1.410       .  A
C4362      F4366   1.357       .  S
C4363      C4368   1.408       .  A
C4363      C4372   1.405       .  A
C4368      C4369   1.402       .  A
C4368      F4373   1.357       .  S
C4369      C4370   1.408       .  A
C4369      H4374   1.083       .  S
C4370      C4371   1.415       .  A
C4371      C4372   1.400       .  A
C4371      F4375   1.358       .  S
C4372      H4376   1.083       .  S
C4377      C4378   1.400       .  A
C4377      C4382   1.393       .  A
C4377      H4387   1.084       .  S
C4378      C4383   1.482       .  S
C4378      C4379   1.409       .  A
C4379      C4380   1.402       .  A
C4379      F4384   1.357       .  S
C4380      C4381   1.406       .  A
C4380      H4385   1.083       .  S
C4381      C4382   1.413       .  A
C4382      F4386   1.358       .  S
C4383      C4388   1.408       .  A
C4383      C4392   1.402       .  A
C4388      C4389   1.396       .  A
C4388      F4393   1.357       .  S
C4389      C4390   1.403       .  A
C4389      H4394   1.083       .  S
C4390      C4391   1.412       .  A
C4391      C4392   1.396       .  A
C4391      F4395   1.358       .  S
C4392      H4396   1.083       .  S
C4397      C4398   1.404       .  A
C4397      C4402   1.400       .  A
C4397      H4407   1.083       .  S
C4398      C4403   1.481       .  S
C4398      C4399   1.407       .  A
C4399      C4400   1.401       .  A
C4399      F4404   1.357       .  S
C4400      C4401   1.403       .  A
C4400      H4405   1.084       .  S
C4401      C4402   1.404       .  A
C4402      F4406   1.357       .  S
C4403      C4408   1.405       .  A
C4403      C4412   1.405       .  A
C4408      C4409   1.396       .  A
C4408      F4413   1.357       .  S
C4409      C4410   1.403       .  A
C4409      H4414   1.084       .  S
C4410      C4411   1.407       .  A
C4411      C4412   1.404       .  A
C4411      F4415   1.357       .  S
C4412      H4416   1.083       .  S
C4417      C4418   1.399       .  A
C4417      C4422   1.396       .  A
C4417      H4427   1.083       .  S
C4418      C4423   1.483       .  S
C4418      C4419   1.410       .  A
C4419      C4420   1.402       .  A
C4419      F4424   1.357       .  S
C4420      C4421   1.404       .  A
C4420      H4425   1.083       .  S
C4421      C4422   1.412       .  A
C4422      F4426   1.358       .  S
C4423      C4428   1.409       .  A
C4423      C4432   1.398       .  A
C4428      C4429   1.403       .  A
C4428      F4433   1.357       .  S
C4429      C4430   1.406       .  A
C4429      H4434   1.083       .  S
C4430      C4431   1.415       .  A
C4431      C4432   1.394       .  A
C4431      F4435   1.358       .  S
C4432      H4436   1.083       .  S
C4437      C4438   1.404       .  A
C4437      C4442   1.400       .  A
C4437      H4447   1.083       .  S
C4438      C4443   1.489       .  S
C4438      C4439   1.407       .  A
C4439      C4440   1.402       .  A
C4439      F4444   1.358       .  S
C4440      C4441   1.408       .  A
C4440      H4445   1.083       .  S
C4441      C4442   1.413       .  A
C4442      F4446   1.357       .  S
C4443      C4448   1.407       .  A
C4443      C4452   1.406       .  A
C4448      C4449   1.396       .  A
C4448      F4453   1.358       .  S
C4449      C4450   1.409       .  A
C4449      H4454   1.083       .  S
C4450      C4451   1.409       .  A
C4451      C4452   1.401       .  A
C4451      F4455   1.357       .  S
C4452      H4456   1.083       .  S
C4457      C4458   1.403       .  A
C4457      C4462   1.396       .  A
C4457      H4467   1.083       .  S
C4458      C4463   1.490       .  S
C4458      C4459   1.409       .  A
C4459      C4460   1.406       .  A
C4459      F4464   1.357       .  S
C4460      C4461   1.408       .  A
C4460      H4465   1.083       .  S
C4461      C4462   1.413       .  A
C4462      F4466   1.358       .  S
C4463      C4468   1.407       .  A
C4463      C4472   1.404       .  A
C4468      C4469   1.400       .  A
C4468      F4473   1.357       .  S
C4469      C4470   1.407       .  A
C4469      H4474   1.083       .  S
C4470      C4471   1.416       .  A
C4471      C4472   1.403       .  A
C4471      F4475   1.358       .  S
C4472      H4476   1.083       .  S
C4477      C4478   1.406       .  A
C4477      C4482   1.401       .  A
C4477      H4487   1.083       .  S
C4478      C4483   1.489       .  S
C4478      C4479   1.405       .  A
C4479      C4480   1.401       .  A
C4479      F4484   1.358       .  S
C4480      C4481   1.411       .  A
C4480      H4485   1.083       .  S
C4481      C4482   1.409       .  A
C4482      F4486   1.357       .  S
C4483      C4488   1.408       .  A
C4483      C4492   1.403       .  A
C4488      C4489   1.403       .  A
C4488      F4493   1.358       .  S
C4489      C4490   1.408       .  A
C4489      H4494   1.083       .  S
C4490      C4491   1.413       .  A
C4491      C4492   1.399       .  A
C4491      F4495   1.357       .  S
C4492      H4496   1.083       .  S
C4497      C4498   1.404       .  A
C4497      C4502   1.400       .  A
C4497      H4507   1.083   1_455  S
C4498      C4503   1.483   1_455  S
C4498      C4499   1.406       .  A
C4499      C4500   1.404       .  A
C4499      F4504   1.357       .  S
C4500      C4501   1.404       .  A
C4500      H4505   1.083       .  S
C4501      C4502   1.405       .  A
C4502      F4506   1.358       .  S
C4503      C4508   1.404       .  A
C4503      C4512   1.405       .  A
C4508      C4509   1.400       .  A
C4508      F4513   1.358       .  S
C4509      C4510   1.406       .  A
C4509      H4514   1.084       .  S
C4510      C4511   1.408       .  A
C4511      C4512   1.406       .  A
C4511      F4515   1.357       .  S
C4512      H4516   1.083       .  S
C4517      C4518   1.398       .  A
C4517      C4522   1.390       .  A
C4517      H4527   1.084       .  S
C4518      C4523   1.476       .  S
C4518      C4519   1.408       .  A
C4519      C4520   1.401       .  A
C4519      F4524   1.357       .  S
C4520      C4521   1.406       .  A
C4520      H4525   1.083       .  S
C4521      C4522   1.412       .  A
C4522      F4526   1.357       .  S
C4523      C4528   1.408       .  A
C4523      C4532   1.401       .  A
C4528      C4529   1.395       .  A
C4528      F4533   1.357       .  S
C4529      C4530   1.400       .  A
C4529      H4534   1.084       .  S
C4530      C4531   1.410       .  A
C4531      C4532   1.395       .  A
C4531      F4535   1.358       .  S
C4532      H4536   1.083       .  S
