geometry optimzed in LAMMPS
_audit_creation_date              2020-12-01 
_audit_creation_method            'lammps2cif' 
_symmetry_space_group_name_H-M    'P1' 
_symmetry_Int_Tables_number       1 
_symmetry_cell_setting            triclinic 
loop_ 
_symmetry_equiv_pos_as_xyz 
  x,y,z 
_cell_length_a                    40.65338009 
_cell_length_b                    40.669696814098735 
_cell_length_c                    28.04338086284468 
_cell_angle_alpha                 90.01452765847361 
_cell_angle_beta                  89.97509795263693 
_cell_angle_gamma                 120.04397689420912 
loop_ 
_atom_site_label 
_atom_site_type_symbol 
_atom_site_fract_x 
_atom_site_fract_y 
_atom_site_fract_z 
_atom_site_charge 
Fe1        Fe  0.10556655  0.24994454  0.27612653     1.65800
Fe2        Fe  0.18055657  0.23889458  0.26168905     1.73200
Fe3        Fe  0.10132158  0.17262694  0.31989737     1.54400
O4          O  0.08191916  0.19916398  0.36825892    -0.83000
O5          O  0.16544793  0.18799708  0.23095657    -0.81400
O6          O  0.10882619  0.26065686  0.34777155    -0.85600
O7          O  0.05126855  0.20537870  0.28613831    -0.80400
O8          O  0.14554099  0.18879778  0.36577680    -0.82200
O9          O  0.16477627  0.25319076  0.19638854    -0.84900
C10         C  0.03514862  0.17093402  0.27354949     0.95800
C11         C  0.09535847  0.23437825  0.37886294     1.03300
O12         O  0.12974372  0.22014827  0.28614642    -1.13900
O13         O  0.20117082  0.29233822  0.29178372    -0.76300
O14         O  0.15497787  0.30101597  0.26586833    -0.79800
O15         O  0.05302560  0.15275421  0.27550720    -0.80500
C16         C  0.18725812  0.31362426  0.28494173     0.94700
O17         O  0.10347476  0.23669274  0.20516406    -0.78500
O18         O  0.19880510  0.22284905  0.32308432    -0.83700
C19         C  0.14884349  0.15452230  0.24745599     0.97400
C20         C  0.18110092  0.20381727  0.36000696     1.03300
O21         O  0.12254918  0.14316027  0.27893230    -0.79300
C22         C  0.13139606  0.24149604  0.17940310     1.01600
Fe23       Fe  0.19120208  0.41899172  0.30890382     1.65800
Fe24       Fe  0.26558040  0.49887469  0.27136398     1.73200
Fe25       Fe  0.27816745  0.42902904  0.32067393     1.54400
O26         O  0.25182430  0.41865291  0.38814201    -0.83000
O27         O  0.29866695  0.48764185  0.22966734    -0.81400
O28         O  0.20211815  0.42866937  0.38038261    -0.85600
O29         O  0.18725319  0.36693429  0.31482330    -0.80400
O30         O  0.31877627  0.48062309  0.34567652    -0.82200
O31         O  0.22352276  0.47312733  0.21772378    -0.84900
C32         C  0.20739206  0.35378103  0.29930697     0.95800
C33         C  0.22735575  0.42666764  0.40530507     1.03300
O34         O  0.24578973  0.44913155  0.30013971    -1.13900
O35         O  0.23447583  0.51619929  0.31324986    -0.76300
O36         O  0.18044368  0.46315723  0.30369370    -0.79800
O37         O  0.24293504  0.37438404  0.29502821    -0.80500
C38         C  0.19865588  0.49794171  0.31436049     0.94700
O39         O  0.18430996  0.41170685  0.23651907    -0.78500
O40         O  0.31214140  0.52836961  0.31794362    -0.83700
C41         C  0.31458813  0.46777343  0.22712901     0.97400
C42         C  0.33063752  0.51583548  0.34094985     1.03300
O43         O  0.30831551  0.44124794  0.25626920    -0.79300
C44         C  0.19978864  0.43850638  0.20617241     1.01600
Fe45       Fe  0.55315741  0.47357477  0.14111303     1.65800
Fe46       Fe  0.55652626  0.40070948  0.09581821     1.73200
Fe47       Fe  0.47867692  0.38766067  0.15698198     1.54400
O48         O  0.49491200  0.41874475  0.22130376    -0.83000
O49         O  0.51169031  0.37353611  0.05081036    -0.81400
O50         O  0.55653214  0.46213979  0.21181525    -0.85600
O51         O  0.50381472  0.47466606  0.15375320    -0.80400
O52         O  0.49548752  0.35328310  0.18807454    -0.82200
O53         O  0.57551348  0.44686748  0.04797568    -0.84900
C54         C  0.47171525  0.45538637  0.13410495     0.95800
C55         C  0.52852159  0.43961495  0.23794453     1.03300
O56         O  0.52884163  0.41973495  0.13097781    -1.13900
O57         O  0.60527795  0.42883201  0.13942606    -0.76300
O58         O  0.60706766  0.48318847  0.12860297    -0.79800
O59         O  0.45762485  0.42014624  0.12670778    -0.80500
C60         C  0.62317353  0.46491770  0.14128326     0.94700
O61         O  0.54851030  0.48109647  0.06963580    -0.78500
O62         O  0.53543468  0.34975717  0.13641682    -0.83700
C63         C  0.47667807  0.35146583  0.05861312     0.97400
C64         C  0.51068468  0.33562062  0.16984399     1.03300
O65         O  0.45979039  0.35203138  0.09674892    -0.79300
C66         C  0.56179834  0.46848396  0.03799078     1.01600
Fe67       Fe  0.46828937  0.55763514  0.11157569     1.65800
Fe68       Fe  0.38140565  0.48052780  0.09834754     1.73200
Fe69       Fe  0.39331961  0.56283395  0.14686133     1.54400
O70         O  0.43480934  0.57935511  0.20139886    -0.83000
O71         O  0.34023749  0.49072904  0.07345045    -0.81400
O72         O  0.47394667  0.55682954  0.18405097    -0.85600
O73         O  0.47876056  0.61257191  0.11670538    -0.80400
O74         O  0.36003346  0.51857309  0.18847488    -0.82200
O75         O  0.40806297  0.49718285  0.03110719    -0.84900
C76         C  0.46056403  0.62878659  0.10433294     0.95800
C77         C  0.45801369  0.56802730  0.21384243     1.03300
O78         O  0.41354821  0.53297610  0.11907170    -1.13900
O79         O  0.41648749  0.46095246  0.12354256    -0.76300
O80         O  0.47259536  0.50966774  0.10627433    -0.79800
O81         O  0.42472881  0.61095701  0.10448799    -0.80500
C82         C  0.45204753  0.47592012  0.12016290     0.94700
O83         O  0.45838382  0.55660116  0.03981064    -0.78500
O84         O  0.35145885  0.46261211  0.16294367    -0.83700
C85         C  0.32819627  0.51393682  0.07778447     0.97400
C86         C  0.34463487  0.48283058  0.19153783     1.03300
O87         O  0.34693483  0.54542726  0.09983310    -0.79300
C88         C  0.43303690  0.52971545  0.01447588     1.01600
Fe89       Fe  0.24676741  0.11660413  0.47913400     1.65800
Fe90       Fe  0.23425006  0.19095988  0.49194374     1.73200
Fe91       Fe  0.16963582  0.11134244  0.43366518     1.54400
O92         O  0.19588276  0.09066635  0.38731323    -0.83000
O93         O  0.18333390  0.17500054  0.02255989    -0.81400
O94         O  0.25736373  0.11898563  0.40721390    -0.85600
O95         O  0.20184397  0.06180486  0.47155179    -0.80400
O96         O  0.18746611  0.15480353  0.38655537    -0.82200
O97         O  0.25025149  0.17739980  0.05708992    -0.84900
C98         C  0.16680048  0.04575511  0.48194304     0.95800
C99         C  0.23106929  0.10532678  0.37616693     1.03300
O100        O  0.21646996  0.14004455  0.46836786    -1.13900
O101        O  0.28721466  0.21184386  0.46041429    -0.76300
O102        O  0.29736843  0.16683472  0.48777989    -0.79800
O103        O  0.14892879  0.06387681  0.47911969    -0.80500
C104        C  0.30902512  0.19849175  0.46733978     0.94700
O105        O  0.23513355  0.11637669  0.05036009    -0.78500
O106        O  0.21557577  0.20755472  0.43101144    -0.83700
C107        C  0.15009319  0.15811465  0.00525692     0.97400
C108        C  0.19828293  0.18945566  0.39334961     1.03300
O109        O  0.14031049  0.13331651  0.47283623    -0.79300
C110        C  0.23967684  0.14462221  0.07519541     1.01600
Fe111      Fe  0.41102230  0.19905008  0.43836943     1.65800
Fe112      Fe  0.42326878  0.28586580  0.42580400     1.73200
Fe113      Fe  0.48789004  0.27091639  0.48422835     1.54400
O114        O  0.46294936  0.22378462  0.03020340    -0.83000
O115        O  0.47408930  0.32020000  0.39406975    -0.81400
O116        O  0.40137978  0.19080944  0.01077840    -0.85600
O117        O  0.45640183  0.18982316  0.44511619    -0.80400
O118        O  0.47152485  0.29654232  0.03202213    -0.82200
O119        O  0.40686205  0.25578897  0.36055446    -0.84900
C120        C  0.49154243  0.20895571  0.43496915     0.95800
C121        C  0.42780520  0.20356546  0.04162572     1.03300
O122        O  0.44119050  0.25275166  0.44913266    -1.13900
O123        O  0.37025938  0.25354753  0.45736439    -0.76300
O124        O  0.36020601  0.19825965  0.43042557    -0.79800
O125        O  0.50945405  0.24491160  0.43877187    -0.80500
C126        C  0.34853082  0.21828738  0.45073035     0.94700
O127        O  0.42327651  0.21090609  0.36727454    -0.78500
O128        O  0.44199782  0.32124177  0.48659446    -0.83700
C129        C  0.50701922  0.33690640  0.41224023     0.97400
C130        C  0.45977843  0.31971164  0.02571153     1.03300
O131        O  0.51707021  0.32231843  0.44553293    -0.79300
C132        C  0.41850174  0.23444872  0.34245509     1.01600
Fe133      Fe  0.55237367  0.09046514  0.38946477     1.65800
Fe134      Fe  0.55692194  0.16876609  0.34825522     1.73200
Fe135      Fe  0.47585494  0.09939459  0.40003056     1.54400
O136        O  0.45767714  0.04510687  0.37464895    -0.83000
O137        O  0.53912006  0.19868920  0.39420573    -0.81400
O138        O  0.50453786  0.03897560  0.40275942    -0.85600
O139        O  0.55436747  0.10506123  0.46007571    -0.80400
O140        O  0.45762171  0.11063927  0.33533443    -0.82200
O141        O  0.60594824  0.18632654  0.39027204    -0.84900
C142        C  0.52647153  0.10136917  0.48535668     0.95800
C143        C  0.47230417  0.02485877  0.38352959     1.03300
O144        O  0.52767977  0.11990174  0.37888154    -1.13900
O145        O  0.57192464  0.14037689  0.29614072    -0.76300
O146        O  0.54826797  0.07909807  0.31812646    -0.79800
O147        O  0.49319211  0.09061062  0.46811307    -0.80500
C148        C  0.55991996  0.10505742  0.28650007     0.94700
O149        O  0.60645972  0.13386415  0.37613597    -0.78500
O150        O  0.51244761  0.15758770  0.30570557    -0.83700
C151        C  0.50798641  0.18565312  0.41767343     0.97400
C152        C  0.47665404  0.13673582  0.30497582     1.03300
O153        O  0.48575877  0.15046050  0.42398696    -0.79300
C154        C  0.62328999  0.16776589  0.39017792     1.01600
Fe155      Fe  0.46819338  0.91840218  0.36286885     1.65800
Fe156      Fe  0.39270762  0.83833880  0.39652144     1.73200
Fe157      Fe  0.38180995  0.90951422  0.34905548     1.54400
O158        O  0.41727641  0.96387152  0.37473173    -0.83000
O159        O  0.34774691  0.81024874  0.34773414    -0.81400
O160        O  0.47317552  0.97097271  0.35706745    -0.85600
O161        O  0.45820708  0.90896544  0.29094542    -0.80400
O162        O  0.35148620  0.89751761  0.41343762    -0.82200
O163        O  0.42482525  0.82191081  0.35510880    -0.84900
C164        C  0.43297711  0.91073069  0.26555181     0.95800
C165        C  0.45283225  0.98435543  0.37105363     1.03300
O166        O  0.41346017  0.88870524  0.36976210    -1.13900
O167        O  0.43310065  0.86294975  0.45227013    -0.76300
O168        O  0.47310678  0.92467362  0.43541125    -0.79800
O169        O  0.40880837  0.91945202  0.28207628    -0.80500
C170        C  0.45657207  0.89738853  0.46496688     0.94700
O171        O  0.47858924  0.87402405  0.36912354    -0.78500
O172        O  0.35846194  0.84880232  0.43691760    -0.83700
C173        C  0.32901716  0.82323302  0.32629799     0.97400
C174        C  0.34368675  0.86964167  0.44099335     1.03300
O175        O  0.34055762  0.85846715  0.32357732    -0.79300
C176        C  0.46063163  0.83983277  0.35593815     1.01600
Fe177      Fe  0.24746291  0.14266421  0.22932282     1.65800
Fe178      Fe  0.17067191  0.06993292  0.18448732     1.73200
Fe179      Fe  0.23560297  0.05576954  0.24318395     1.54400
O180        O  0.28850592  0.08792118  0.21157776    -0.83000
O181        O  0.14173387  0.01862164  0.22363013    -0.81400
O182        O  0.29831702  0.14363328  0.23670606    -0.85600
O183        O  0.23597954  0.13137646  0.30050488    -0.80400
O184        O  0.21705878  0.02002528  0.18281854    -0.82200
O185        O  0.14929731  0.09603512  0.22976907    -0.84900
C186        C  0.24075508  0.10793743  0.32549337     0.95800
C187        C  0.31004319  0.12330552  0.21737028     1.03300
O188        O  0.21754828  0.08871937  0.21924464    -1.13900
O189        O  0.19570441  0.11678842  0.13798487    -0.76300
O190        O  0.25721043  0.15080098  0.15694600    -0.79800
O191        O  0.25221813  0.08638083  0.30777337    -0.80500
C192        C  0.23064728  0.13776168  0.12622281     0.94700
O193        O  0.20188276  0.15169654  0.22342463    -0.78500
O194        O  0.18982317  0.04519066  0.13784199    -0.83700
C195        C  0.15188098  0.00428181  0.25712226     0.97400
C196        C  0.19995194  0.02086735  0.14509178     1.03300
O197        O  0.18480852  0.02138155  0.27531026    -0.79300
C198        C  0.16668379  0.13202540  0.23288239     1.01600
Fe199      Fe  0.41178163  0.22530401  0.18821378     1.65800
Fe200      Fe  0.48820590  0.22920265  0.23374663     1.73200
Fe201      Fe  0.42369724  0.15041777  0.17423642     1.54400
O202        O  0.37103728  0.12932204  0.20641212    -0.83000
O203        O  0.51700777  0.20662104  0.19488113    -0.81400
O204        O  0.36102059  0.17510654  0.18119107    -0.85600
O205        O  0.42350155  0.22538873  0.11711059    -0.80400
O206        O  0.44270914  0.13318993  0.23385701    -0.82200
O207        O  0.50998697  0.27673117  0.18843631    -0.84900
C208        C  0.41827946  0.19693976  0.09230160     0.95800
C209        C  0.34942832  0.14307940  0.20067063     1.03300
O210        O  0.44155638  0.20129289  0.19861742    -1.13900
O211        O  0.46309584  0.25107765  0.28012417    -0.76300
O212        O  0.40176829  0.22387313  0.26047040    -0.79800
O213        O  0.40625424  0.16394276  0.11023845    -0.80500
C214        C  0.42806984  0.23711970  0.29151438     0.94700
O215        O  0.45743123  0.27995401  0.19388504    -0.78500
O216        O  0.46834933  0.18496206  0.27996703    -0.83700
C217        C  0.50694211  0.18267230  0.16074763     0.97400
C218        C  0.45906930  0.15078062  0.27202976     1.03300
O219        O  0.47443838  0.16790214  0.14158193    -0.79300
C220        C  0.49264080  0.29532108  0.18458581     1.01600
Fe221      Fe  0.10538243  0.86671958  0.02887891     1.65800
Fe222      Fe  0.10182396  0.94072691  0.07019589     1.73200
Fe223      Fe  0.18195577  0.95187789  0.01626836     1.54400
O224        O  0.20019640  0.91655778  0.04421453    -0.83000
O225        O  0.12084493  0.98905133  0.02553619    -0.81400
O226        O  0.15343945  0.86346163  0.01574897    -0.85600
O227        O  0.10265245  0.87848028  0.45778264    -0.80400
O228        O  0.20088838  0.98391390  0.07923792    -0.82200
O229        O  0.05300543  0.91019202  0.02723538    -0.84900
C230        C  0.13070662  0.90156713  0.43194555     0.95800
C231        C  0.18557019  0.88162591  0.03535458     1.03300
O232        O  0.13046513  0.92089650  0.03883133    -1.13900
O233        O  0.08532926  0.89683596  0.12143821    -0.76300
O234        O  0.10984094  0.85994540  0.10021243    -0.79800
O235        O  0.16433946  0.92298885  0.44868739    -0.80500
C236        C  0.09791194  0.87416446  0.13154651     0.94700
O237        O  0.05146587  0.85676112  0.04202353    -0.78500
O238        O  0.14632832  0.97248058  0.11385442    -0.83700
C239        C  0.15018653  0.00582769  0.49819390     0.97400
C240        C  0.18225769  0.98916040  0.11208099     1.03300
O241        O  0.16992038  0.99093325  0.48638478    -0.79300
C242        C  0.03520939  0.87420571  0.02719951     1.01600
Fe243      Fe  0.18918925  0.77873988  0.05584395     1.65800
Fe244      Fe  0.26474799  0.77409333  0.02106709     1.73200
Fe245      Fe  0.27633973  0.85658367  0.06835652     1.54400
O246        O  0.24058392  0.87594352  0.04564177    -0.83000
O247        O  0.30966386  0.79052276  0.07019624    -0.81400
O248        O  0.18419339  0.82624072  0.05913685    -0.85600
O249        O  0.19978804  0.78093327  0.12771554    -0.80400
O250        O  0.30475978  0.87469276  0.00291200    -0.82200
O251        O  0.23259296  0.72495314  0.06136452    -0.84900
C252        C  0.22592291  0.80740323  0.15276568     0.95800
C253        C  0.20492768  0.86052705  0.04767417     1.03300
O254        O  0.24399969  0.80377232  0.04810311    -1.13900
O255        O  0.22452231  0.75870626  0.46559435    -0.76300
O256        O  0.18423178  0.78004753  0.48242776    -0.79800
O257        O  0.25125064  0.83972357  0.13611333    -0.80500
C258        C  0.20071745  0.76922393  0.45289918     0.94700
O259        O  0.17850803  0.72389161  0.05239864    -0.78500
O260        O  0.29922666  0.81921693  0.48146545    -0.83700
C261        C  0.32921572  0.82280215  0.09022395     0.97400
C262        C  0.31380563  0.85477909  0.47700128     1.03300
O263        O  0.31833718  0.84702430  0.09141742    -0.79300
C264        C  0.19678664  0.70738686  0.06262318     1.01600
Fe265      Fe  0.21986046  0.80603344  0.30560806     1.65800
Fe266      Fe  0.22380410  0.73207852  0.26427069     1.73200
Fe267      Fe  0.14337528  0.72071712  0.31749462     1.54400
O268        O  0.16041602  0.74866382  0.38440968    -0.83000
O269        O  0.17946933  0.69983758  0.22070280    -0.81400
O270        O  0.22199980  0.79398998  0.37630038    -0.85600
O271        O  0.17174739  0.80934764  0.31830710    -0.80400
O272        O  0.15416132  0.68083507  0.34442471    -0.82200
O273        O  0.24004870  0.77592940  0.21290036    -0.84900
C274        C  0.13965076  0.79107534  0.29865099     0.95800
C275        C  0.19380603  0.77048049  0.40166345     1.03300
O276        O  0.19496834  0.75183538  0.29542101    -1.13900
O277        O  0.27250510  0.76281004  0.30708945    -0.76300
O278        O  0.27392095  0.81627189  0.29282529    -0.79800
O279        O  0.12518583  0.75616290  0.28977641    -0.80500
C280        C  0.29025196  0.79877215  0.30716530     0.94700
O281        O  0.21569183  0.81295474  0.23427901    -0.78500
O282        O  0.20502381  0.68388629  0.30923322    -0.83700
C283        C  0.14355146  0.68336579  0.22202158     0.97400
C284        C  0.17520558  0.66689161  0.33526984     1.03300
O285        O  0.12477245  0.68905708  0.25422922    -0.79300
C286        C  0.22761253  0.79875947  0.20290876     1.01600
Fe287      Fe  0.13518821  0.89323495  0.27882092     1.65800
Fe288      Fe  0.05953506  0.89777655  0.31168435     1.73200
Fe289      Fe  0.04867391  0.81551653  0.26535755     1.54400
O290        O  0.07494253  0.83282054  0.19809772    -0.83000
O291        O  0.02444894  0.85282759  0.35119895    -0.81400
O292        O  0.12502640  0.89249153  0.20706861    -0.85600
O293        O  0.14037329  0.84584058  0.27282495    -0.80400
O294        O  0.00675416  0.82487259  0.24134550    -0.82200
O295        O  0.09938767  0.91283098  0.36818665    -0.84900
C296        C  0.12006009  0.81194778  0.28617640     0.95800
C297        C  0.09957946  0.86561297  0.18171476     1.03300
O298        O  0.08042288  0.86809302  0.28565466    -1.13900
O299        O  0.09230507  0.94655832  0.27089721    -0.76300
O300        O  0.14587587  0.94805782  0.28533128    -0.79800
O301        O  0.08449139  0.79668794  0.28969173    -0.80500
C302        C  0.12809356  0.96440325  0.27211464     0.94700
O303        O  0.14025135  0.89212092  0.35125853    -0.78500
O304        O  0.01512847  0.88139711  0.26206752    -0.83700
C305        C  0.01054721  0.81740746  0.35652123     0.97400
C306        C  0.99558651  0.84889557  0.24264297     1.03300
O307        O  0.01942077  0.79743087  0.33033913    -0.79300
C308        C  0.12349081  0.90262316  0.38079748     1.01600
Fe309      Fe  0.91327429  0.44761068  0.14677207     1.65800
Fe310      Fe  0.83696315  0.44362551  0.10092577     1.73200
Fe311      Fe  0.90126411  0.52231588  0.16080316     1.54400
O312        O  0.91858860  0.50869036  0.22490852    -0.83000
O313        O  0.85741877  0.48780267  0.05471493    -0.81400
O314        O  0.90123657  0.44720523  0.21798470    -0.85600
O315        O  0.96409046  0.49773315  0.15444379    -0.80400
O316        O  0.85038792  0.50487832  0.19327770    -0.82200
O317        O  0.86215730  0.42169415  0.05495346    -0.84900
C318        C  0.97577013  0.52968671  0.13471702     0.95800
C319        C  0.90655639  0.47568821  0.24287737     1.03300
O320        O  0.88343274  0.47147988  0.13647201    -1.13900
O321        O  0.81481105  0.39588635  0.14594089    -0.76300
O322        O  0.86759871  0.39313569  0.14024371    -0.79800
O323        O  0.95412859  0.54341182  0.12875969    -0.80500
C324        C  0.83236693  0.37748193  0.14963938     0.94700
O325        O  0.92353480  0.44948339  0.07446747    -0.78500
O326        O  0.80806620  0.46631193  0.13961569    -0.83700
C327        C  0.86610704  0.52176116  0.06269671     0.97400
C328        C  0.81786916  0.49000105  0.17405980     1.03300
O329        O  0.88212936  0.53938755  0.10102474    -0.79300
C330        C  0.89718431  0.43601850  0.04346108     1.01600
Fe331      Fe  0.07750040  0.52946871  0.10539604     1.65800
Fe332      Fe  0.08980903  0.61637399  0.09139494     1.73200
Fe333      Fe  0.15465873  0.60199041  0.15001853     1.54400
O334        O  0.12954930  0.55517623  0.19651264    -0.83000
O335        O  0.14058370  0.65004402  0.05876044    -0.81400
O336        O  0.06795995  0.52147834  0.17783455    -0.85600
O337        O  0.12288666  0.52016542  0.11112612    -0.80400
O338        O  0.13578440  0.62706556  0.19665273    -0.82200
O339        O  0.07250624  0.58552055  0.02705077    -0.84900
C340        C  0.15810577  0.53957807  0.10169115     0.95800
C341        C  0.09461841  0.53445556  0.20844004     1.03300
O342        O  0.10769276  0.58333721  0.11541380    -1.13900
O343        O  0.03697713  0.58467062  0.12357116    -0.76300
O344        O  0.02671408  0.52882939  0.09833470    -0.79800
O345        O  0.17576841  0.57558641  0.10476055    -0.80500
C346        C  0.01520061  0.54929772  0.11783644     0.94700
O347        O  0.08891069  0.54068480  0.03410945    -0.78500
O348        O  0.10889945  0.65241560  0.15136484    -0.83700
C349        C  0.17343224  0.66738449  0.07714987     0.97400
C350        C  0.12589632  0.65156047  0.18916215     1.03300
O351        O  0.18363629  0.65323006  0.11079619    -0.79300
C352        C  0.08398863  0.56404884  0.00915985     1.01600
Fe353      Fe  0.77315436  0.58228534  0.44589038     1.65800
Fe354      Fe  0.84826977  0.57176801  0.43188008     1.73200
Fe355      Fe  0.76877236  0.50479487  0.48896532     1.54400
O356        O  0.75239339  0.53145502  0.03824647    -0.83000
O357        O  0.83470351  0.52072668  0.40295246    -0.81400
O358        O  0.77706605  0.59299613  0.01714595    -0.85600
O359        O  0.71914851  0.53845116  0.45897185    -0.80400
O360        O  0.81238827  0.51506344  0.02981249    -0.82200
O361        O  0.83136190  0.58417101  0.36596178    -0.84900
C362        C  0.70269133  0.50447827  0.44485043     0.95800
C363        C  0.76477215  0.56670842  0.04836701     1.03300
O364        O  0.79739107  0.55251734  0.45580714    -1.13900
O365        O  0.86816034  0.62565383  0.46061671    -0.76300
O366        O  0.82191546  0.63314350  0.43271143    -0.79800
O367        O  0.72022044  0.48597735  0.44544909    -0.80500
C368        C  0.85404548  0.64655044  0.45226817     0.94700
O369        O  0.76994627  0.56765348  0.37510729    -0.78500
O370        O  0.86697990  0.55716558  0.49395618    -0.83700
C371        C  0.81607130  0.48649699  0.41673122     0.97400
C372        C  0.84827508  0.53536448  0.02955471     1.03300
O373        O  0.78853305  0.47467486  0.44652167    -0.79300
C374        C  0.79782368  0.57228766  0.34918929     1.01600
Fe375      Fe  0.85739031  0.75245675  0.47336688     1.65800
Fe376      Fe  0.94461709  0.76286803  0.48534008     1.73200
Fe377      Fe  0.93190532  0.83314044  0.43855276     1.54400
O378        O  0.89110813  0.80771454  0.38333679    -0.83000
O379        O  0.98540473  0.81440214  0.00987417    -0.81400
O380        O  0.85160734  0.74599400  0.40084278    -0.85600
O381        O  0.84598361  0.79617463  0.46780835    -0.80400
O382        O  0.96633327  0.82326737  0.39783278    -0.82200
O383        O  0.91770168  0.75347493  0.05307438    -0.84900
C384        C  0.86374003  0.83063759  0.47983379     0.95800
C385        C  0.86768893  0.77315640  0.37101818     1.03300
O386        O  0.91202030  0.78284985  0.46549922    -1.13900
O387        O  0.90925646  0.70773036  0.46143067    -0.76300
O388        O  0.85320213  0.70028301  0.47894283    -0.79800
O389        O  0.89953355  0.84902135  0.48007323    -0.80500
C390        C  0.87371517  0.68702625  0.46526587     0.94700
O391        O  0.86714672  0.76230137  0.04456900    -0.78500
O392        O  0.97341413  0.77433709  0.41995669    -0.83700
C393        C  0.99647170  0.84956016  0.00788623     0.97400
C394        C  0.98103825  0.80244095  0.39291953     1.03300
O395        O  0.97727728  0.86222458  0.48685431    -0.79300
C396        C  0.89268283  0.76094971  0.06981861     1.01600
Fe397      Fe  0.88617085  0.75576981  0.22314744     1.65800
Fe398      Fe  0.88972565  0.83299873  0.18082176     1.73200
Fe399      Fe  0.81029417  0.76514580  0.23740550     1.54400
O400        O  0.79111816  0.71175501  0.20798191    -0.83000
O401        O  0.86967811  0.86228556  0.22398598    -0.81400
O402        O  0.83768044  0.70461664  0.23560661    -0.85600
O403        O  0.88873810  0.76984406  0.29407886    -0.80400
O404        O  0.79130105  0.77983143  0.17573852    -0.82200
O405        O  0.93856763  0.85222754  0.22381084    -0.84900
C406        C  0.86059058  0.76463593  0.31987793     0.95800
C407        C  0.80554790  0.69111786  0.21607242     1.03300
O408        O  0.86141175  0.78506389  0.21354935    -1.13900
O409        O  0.90743628  0.80610734  0.13066595    -0.76300
O410        O  0.88172091  0.74463378  0.15147530    -0.79800
O411        O  0.82704592  0.75228568  0.30297873    -0.80500
C412        C  0.89425304  0.77086775  0.12021216     0.94700
O413        O  0.94020253  0.79997601  0.21078400    -0.78500
O414        O  0.84527939  0.81838278  0.13646221    -0.83700
C415        C  0.84192887  0.85009211  0.25345334     0.97400
C416        C  0.80949101  0.80128290  0.14068573     1.03300
O417        O  0.82331904  0.81579476  0.26696628    -0.79300
C418        C  0.95649957  0.83413793  0.22420988     1.01600
Fe419      Fe  0.80163548  0.58483603  0.19579673     1.65800
Fe420      Fe  0.72626277  0.50459441  0.22942459     1.73200
Fe421      Fe  0.71500098  0.57561320  0.18234476     1.54400
O422        O  0.75042577  0.63035361  0.20654785    -0.83000
O423        O  0.68132635  0.47607861  0.18046083    -0.81400
O424        O  0.80640910  0.63726396  0.18996401    -0.85600
O425        O  0.79153897  0.57549808  0.12404632    -0.80400
O426        O  0.68581441  0.56448950  0.24742432    -0.82200
O427        O  0.75858247  0.48840941  0.18820827    -0.84900
C428        C  0.76610275  0.57679343  0.09859419     0.95800
C429        C  0.78597393  0.65074551  0.20315945     1.03300
O430        O  0.74691614  0.55503018  0.20283437    -1.13900
O431        O  0.76658281  0.52952467  0.28543554    -0.76300
O432        O  0.80693257  0.59114415  0.26832557    -0.79800
O433        O  0.74123722  0.58463085  0.11495488    -0.80500
C434        C  0.79048961  0.56391928  0.29798626     0.94700
O435        O  0.81235252  0.54065116  0.20179433    -0.78500
O436        O  0.69184930  0.51493700  0.26949224    -0.83700
C437        C  0.66214529  0.48904944  0.16016228     0.97400
C438        C  0.67773467  0.53628212  0.27447844     1.03300
O439        O  0.67350451  0.52425947  0.15836501    -0.79300
C440        C  0.79437584  0.50639599  0.18892485     1.01600
Fe441      Fe  0.52500127  0.44836131  0.39103945     1.65800
Fe442      Fe  0.59942778  0.44218482  0.35705353     1.73200
Fe443      Fe  0.61192271  0.52514211  0.40344701     1.54400
O444        O  0.57665684  0.54478515  0.37900981    -0.83000
O445        O  0.64429350  0.45824039  0.40576609    -0.81400
O446        O  0.52093387  0.49639395  0.39802609    -0.85600
O447        O  0.53544330  0.44878813  0.46258714    -0.80400
O448        O  0.64085473  0.54251658  0.33809878    -0.82200
O449        O  0.56680113  0.39405834  0.39857242    -0.84900
C450        C  0.56106306  0.47565094  0.48776381     0.95800
C451        C  0.54118842  0.52996461  0.38342236     1.03300
O452        O  0.57955285  0.47263205  0.38355757    -1.13900
O453        O  0.55894275  0.42711065  0.30148898    -0.76300
O454        O  0.51977591  0.44982877  0.31864990    -0.79800
O455        O  0.58585653  0.50831577  0.47109311    -0.80500
C456        C  0.53573438  0.43847186  0.28900777     0.94700
O457        O  0.51361340  0.39332487  0.38401769    -0.78500
O458        O  0.63412005  0.48650623  0.31664762    -0.83700
C459        C  0.66395292  0.49046048  0.42576492     0.97400
C460        C  0.64859202  0.52197748  0.31131203     1.03300
O461        O  0.65321041  0.51481192  0.42733839    -0.79300
C462        C  0.53105239  0.37664223  0.39733763     1.01600
Fe463      Fe  0.43989965  0.53243903  0.36183045     1.65800
Fe464      Fe  0.43561299  0.60534058  0.40531212     1.73200
Fe465      Fe  0.51456576  0.61840974  0.34665879     1.54400
O466        O  0.53523460  0.58557849  0.37712340    -0.83000
O467        O  0.45661703  0.65593744  0.36421257    -0.81400
O468        O  0.48916095  0.53099245  0.35022330    -0.85600
O469        O  0.43712964  0.54364701  0.29083111    -0.80400
O470        O  0.53279068  0.65348014  0.40747390    -0.82200
O471        O  0.38735586  0.57656486  0.36085705    -0.84900
C472        C  0.46515597  0.56661674  0.26497468     0.95800
C473        C  0.52128340  0.55036513  0.36972389     1.03300
O474        O  0.46401320  0.58636920  0.37155457    -1.13900
O475        O  0.41657427  0.55961063  0.45374297    -0.76300
O476        O  0.44413348  0.52557832  0.43356910    -0.79800
O477        O  0.49866279  0.58773043  0.28189990    -0.80500
C478        C  0.43067488  0.53849294  0.46461150     0.94700
O479        O  0.38581083  0.52255836  0.37339687    -0.78500
O480        O  0.47981774  0.63334889  0.45106208    -0.83700
C481        C  0.48240014  0.67062069  0.33208113     0.97400
C482        C  0.51516019  0.65464891  0.44459156     1.03300
O483        O  0.49890761  0.65368590  0.31542424    -0.79300
C484        C  0.36959907  0.54046096  0.35971920     1.01600
Fe485      Fe  0.57978271  0.80731721  0.06316304     1.65800
Fe486      Fe  0.50281543  0.73491244  0.01738925     1.73200
Fe487      Fe  0.56772697  0.72050341  0.07606850     1.54400
O488        O  0.62067380  0.75269482  0.04487462    -0.83000
O489        O  0.47375495  0.68320681  0.05608795    -0.81400
O490        O  0.63078371  0.80846619  0.07008892    -0.85600
O491        O  0.56832987  0.79570106  0.13452331    -0.80400
O492        O  0.54962637  0.68566860  0.01511991    -0.82200
O493        O  0.48125702  0.76088526  0.06282618    -0.84900
C494        C  0.57309364  0.77217105  0.15939386     0.95800
C495        C  0.64235955  0.78800733  0.05076712     1.03300
O496        O  0.54969792  0.75350327  0.05248689    -1.13900
O497        O  0.52773977  0.78218863  0.47081757    -0.76300
O498        O  0.58912848  0.81606041  0.49070202    -0.79800
O499        O  0.58409588  0.75035025  0.14131059    -0.80500
C500        C  0.56285696  0.80292274  0.45965853     0.94700
O501        O  0.53426862  0.81623946  0.05732724    -0.78500
O502        O  0.52097696  0.71016133  0.47014892    -0.83700
C503        C  0.48401291  0.66876001  0.08939226     0.97400
C504        C  0.53190210  0.68646394  0.47752158     1.03300
O505        O  0.51687339  0.68594305  0.10768864    -0.79300
C506        C  0.49901814  0.79686411  0.06656633     1.01600
Fe507      Fe  0.74423412  0.88867292  0.02218639     1.65800
Fe508      Fe  0.82142698  0.89390712  0.06708446     1.73200
Fe509      Fe  0.75607022  0.81402518  0.00966629     1.54400
O510        O  0.70330384  0.79375176  0.04134275    -0.83000
O511        O  0.85059476  0.87219162  0.02740088    -0.81400
O512        O  0.69360449  0.83878918  0.01322612    -0.85600
O513        O  0.75682353  0.88974285  0.45097394    -0.80400
O514        O  0.77424887  0.79724125  0.07056912    -0.82200
O515        O  0.84196201  0.94120595  0.02162645    -0.84900
C516        C  0.75135955  0.86115075  0.42618840     0.95800
C517        C  0.68176036  0.80734916  0.03417902     1.03300
O518        O  0.77437310  0.86511469  0.03283585    -1.13900
O519        O  0.79540964  0.91455500  0.11383772    -0.76300
O520        O  0.73383566  0.88626272  0.09427101    -0.79800
O521        O  0.73941508  0.82814786  0.44429861    -0.80500
C522        C  0.76026296  0.89987823  0.12520610     0.94700
O523        O  0.78911767  0.94315153  0.03020000    -0.78500
O524        O  0.80379984  0.85048530  0.11402859    -0.83700
C525        C  0.83995752  0.84669123  0.49467731     0.97400
C526        C  0.79220169  0.81560363  0.10768782     1.03300
O527        O  0.80687936  0.83049246  0.47682839    -0.79300
C528        C  0.82398870  0.95918649  0.01911535     1.01600
Fe529      Fe  0.85507157  0.11130051  0.22246711     1.65800
Fe530      Fe  0.93119665  0.10689554  0.18699331     1.73200
Fe531      Fe  0.94236841  0.18924792  0.23475012     1.54400
O532        O  0.90640039  0.20909790  0.21404235    -0.83000
O533        O  0.97619153  0.12320208  0.23597900    -0.81400
O534        O  0.84976087  0.15856728  0.22261668    -0.85600
O535        O  0.86517991  0.11483414  0.29476399    -0.80400
O536        O  0.97000618  0.20737316  0.16858160    -0.82200
O537        O  0.89919622  0.05736372  0.22661731    -0.84900
C538        C  0.89183606  0.14068722  0.31989499     0.95800
C539        C  0.87065632  0.19332981  0.21374627     1.03300
O540        O  0.90999224  0.13631857  0.21452968    -1.13900
O541        O  0.89112707  0.09134698  0.13114450    -0.76300
O542        O  0.84819455  0.10886754  0.14982198    -0.79800
O543        O  0.91834111  0.17232654  0.30310523    -0.80500
C544        C  0.86553014  0.09966807  0.11958318     0.94700
O545        O  0.84497942  0.05681616  0.22204102    -0.78500
O546        O  0.96564307  0.15230713  0.14749862    -0.83700
C547        C  0.99597490  0.15585594  0.25494804     0.97400
C548        C  0.97914866  0.18767130  0.14220635     1.03300
O549        O  0.98475748  0.17980348  0.25608011    -0.79300
C550        C  0.86347644  0.04019127  0.23013168     1.01600
Fe551      Fe  0.77061836  0.19866300  0.19430137     1.65800
Fe552      Fe  0.76747551  0.27241138  0.23794505     1.73200
Fe553      Fe  0.84666903  0.28393588  0.18109005     1.54400
O554        O  0.86567474  0.24942711  0.21009203    -0.83000
O555        O  0.78737670  0.32187919  0.19493997    -0.81400
O556        O  0.81917148  0.19612163  0.18140103    -0.85600
O557        O  0.76803606  0.21075947  0.12373270    -0.80400
O558        O  0.86584825  0.31739356  0.24304465    -0.82200
O559        O  0.71862607  0.24293426  0.19457133    -0.84900
C560        C  0.79630967  0.23361560  0.09810577     0.95800
C561        C  0.85123865  0.21444246  0.20129655     1.03300
O562        O  0.79560573  0.25273071  0.20489326    -1.13900
O563        O  0.75001699  0.22741552  0.28768688    -0.76300
O564        O  0.77481829  0.19105664  0.26557486    -0.79800
O565        O  0.82983702  0.25463949  0.11519444    -0.80500
C566        C  0.76270785  0.20478142  0.29731424     0.94700
O567        O  0.71675906  0.18894333  0.20711767    -0.78500
O568        O  0.81213994  0.30264380  0.28251521    -0.83700
C569        C  0.81507599  0.33741882  0.16538008     0.97400
C570        C  0.84798603  0.32102482  0.27822991     1.03300
O571        O  0.83373067  0.32175706  0.15198199    -0.79300
C572        C  0.70070669  0.20690481  0.19332628     1.01600
Fe573      Fe  0.13313503  0.25256610  0.02608898     1.65800
Fe574      Fe  0.05890886  0.17266951  0.06238024     1.73200
Fe575      Fe  0.04616670  0.24214816  0.01277906     1.54400
O576        O  0.08090776  0.29634437  0.03974029    -0.83000
O577        O  0.01213454  0.14339439  0.01605061    -0.81400
O578        O  0.13658017  0.30436660  0.01880128    -0.85600
O579        O  0.12262476  0.24300887  0.45415865    -0.80400
O580        O  0.01489220  0.22897978  0.07662098    -0.82200
O581        O  0.09028255  0.15598499  0.01968396    -0.84900
C582        C  0.09700370  0.24436785  0.42924560     0.95800
C583        C  0.11636532  0.31719877  0.03508976     1.03300
O584        O  0.07850060  0.22228436  0.03392975    -1.13900
O585        O  0.10105073  0.19824335  0.11611547    -0.76300
O586        O  0.13902897  0.26009154  0.09844345    -0.79800
O587        O  0.07239632  0.25232554  0.44631177    -0.80500
C588        C  0.12396916  0.23293342  0.12834468     0.94700
O589        O  0.14398700  0.20845352  0.03300566    -0.78500
O590        O  0.02593142  0.18379649  0.10451594    -0.83700
C591        C  0.99425966  0.15600211  0.49262511     0.97400
C592        C  0.00921683  0.20296892  0.10639495     1.03300
O593        O  0.00532291  0.19113516  0.48983053    -0.79300
C594        C  0.12614519  0.17412157  0.02018519     1.01600
Fe595      Fe  0.21768857  0.42037202  0.05860719     1.65800
Fe596      Fe  0.22251336  0.49794239  0.01469943     1.73200
Fe597      Fe  0.14301240  0.43202097  0.07280396     1.54400
O598        O  0.12235064  0.37850332  0.04283576    -0.83000
O599        O  0.20205334  0.52791198  0.05596733    -0.81400
O600        O  0.16820125  0.36968870  0.06959948    -0.85600
O601        O  0.21998764  0.43403762  0.12945482    -0.80400
O602        O  0.12476177  0.44805017  0.01135255    -0.82200
O603        O  0.27107007  0.51732478  0.05854977    -0.84900
C604        C  0.19215046  0.42952583  0.15520995     0.95800
C605        C  0.13620554  0.35719118  0.04989728     1.03300
O606        O  0.19382476  0.45049103  0.04845283    -1.13900
O607        O  0.24301882  0.47163563  0.46641293    -0.76300
O608        O  0.21530999  0.41011183  0.48676508    -0.79800
O609        O  0.15875241  0.41785581  0.13827178    -0.80500
C610        C  0.22906511  0.43641799  0.45570358     0.94700
O611        O  0.27220719  0.46436548  0.04809822    -0.78500
O612        O  0.17897791  0.48107355  0.46798012    -0.83700
C613        C  0.17551770  0.51668638  0.08709094     0.97400
C614        C  0.14393576  0.46841376  0.47529857     1.03300
O615        O  0.15824563  0.48306954  0.10317484    -0.79300
C616        C  0.28877189  0.49894530  0.06006892     1.01600
Fe617      Fe  0.91402387  0.47420396  0.39662914     1.65800
Fe618      Fe  0.83714667  0.40175136  0.35121177     1.73200
Fe619      Fe  0.90189372  0.38729024  0.40978723     1.54400
O620        O  0.95496336  0.41952408  0.37823748    -0.83000
O621        O  0.80831050  0.34999049  0.38952832    -0.81400
O622        O  0.96507393  0.47532202  0.40350952    -0.85600
O623        O  0.90261924  0.46286665  0.46785125    -0.80400
O624        O  0.88292125  0.35166681  0.34909409    -0.82200
O625        O  0.81554218  0.42749790  0.39713349    -0.84900
C626        C  0.90734176  0.43931463  0.49267186     0.95800
C627        C  0.97672056  0.45489092  0.38419876     1.03300
O628        O  0.88395826  0.42034570  0.38623159    -1.13900
O629        O  0.86228237  0.44898906  0.30555405    -0.76300
O630        O  0.92378705  0.48229987  0.32445092    -0.79800
O631        O  0.91863356  0.41769064  0.47466293    -0.80500
C632        C  0.89728356  0.46922225  0.29372830     0.94700
O633        O  0.86831877  0.48301268  0.39092314    -0.78500
O634        O  0.85662882  0.37762722  0.30390282    -0.83700
C635        C  0.81836099  0.33562782  0.42311400     0.97400
C636        C  0.86612415  0.35284960  0.31117941     1.03300
O637        O  0.85106297  0.35296577  0.44188352    -0.79300
C638        C  0.83316901  0.46350102  0.40082304     1.01600
Fe639      Fe  0.07879487  0.55617480  0.35526933     1.65800
Fe640      Fe  0.15638370  0.56179258  0.40067503     1.73200
Fe641      Fe  0.09113284  0.48173241  0.34343085     1.54400
O642        O  0.03807261  0.46111460  0.37488163    -0.83000
O643        O  0.18577045  0.53999063  0.36123059    -0.81400
O644        O  0.02807088  0.50606255  0.34707303    -0.85600
O645        O  0.09080179  0.55642961  0.28417853    -0.80400
O646        O  0.10947663  0.46538804  0.40476128    -0.82200
O647        O  0.17676171  0.60911693  0.35504928    -0.84900
C648        C  0.08575225  0.52792259  0.25952141     0.95800
C649        C  0.01630153  0.47448185  0.36770224     1.03300
O650        O  0.10922512  0.53284587  0.36631841    -1.13900
O651        O  0.13006594  0.58234937  0.44712297    -0.76300
O652        O  0.06855993  0.55415586  0.42725467    -0.79800
O653        O  0.07477163  0.49513976  0.27789874    -0.80500
C654        C  0.09486523  0.56758403  0.45830513     0.94700
O655        O  0.12371586  0.61095805  0.36226984    -0.78500
O656        O  0.13947114  0.51858565  0.44823413    -0.83700
C657        C  0.17514612  0.51444795  0.32892595     0.97400
C658        C  0.12740526  0.48358121  0.44205194     1.03300
O659        O  0.14190101  0.49776546  0.31166624    -0.79300
C660        C  0.15878345  0.62709918  0.35198859     1.01600
Fe661      Fe  0.74403133  0.86265886  0.27224333     1.65800
Fe662      Fe  0.75660886  0.94955585  0.25835335     1.73200
Fe663      Fe  0.82102706  0.93498169  0.31767003     1.54400
O664        O  0.79563119  0.88800402  0.36368258    -0.83000
O665        O  0.80754921  0.98290027  0.22604354    -0.81400
O666        O  0.73414727  0.85465747  0.34449532    -0.85600
O667        O  0.78946062  0.85348118  0.27837875    -0.80400
O668        O  0.80177373  0.95968454  0.36435958    -0.82200
O669        O  0.73952643  0.91893933  0.19385974    -0.84900
C670        C  0.82470121  0.87291997  0.26898946     0.95800
C671        C  0.76061052  0.86762914  0.37531758     1.03300
O672        O  0.77425617  0.91644369  0.28253430    -1.13900
O673        O  0.70365074  0.91798430  0.29005862    -0.76300
O674        O  0.69329906  0.86207474  0.26493969    -0.79800
O675        O  0.84241657  0.90889040  0.27246151    -0.80500
C676        C  0.68183932  0.88263019  0.28431832     0.94700
O677        O  0.75563708  0.87389194  0.20097434    -0.78500
O678        O  0.77534879  0.98525809  0.31864938    -0.83700
C679        C  0.84028568  0.00026758  0.24467684     0.97400
C680        C  0.79168967  0.98401450  0.35688222     1.03300
O681        O  0.85026558  0.98631941  0.27878115    -0.79300
C682        C  0.75081596  0.89731021  0.17599405     1.01600
Fe683      Fe  0.58004223  0.78135887  0.31349563     1.65800
Fe684      Fe  0.50314102  0.77664347  0.26833846     1.73200
Fe685      Fe  0.56802406  0.85620512  0.32633841     1.54400
O686        O  0.58476653  0.84257307  0.39096696    -0.83000
O687        O  0.52170518  0.82034739  0.22140312    -0.81400
O688        O  0.56770602  0.78108678  0.38441198    -0.85600
O689        O  0.63070455  0.83151321  0.32148756    -0.80400
O690        O  0.51733290  0.83973496  0.35861861    -0.82200
O691        O  0.52874865  0.75532331  0.22192039    -0.84900
C692        C  0.64243608  0.86319945  0.30110513     0.95800
C693        C  0.57263066  0.80954863  0.40901935     1.03300
O694        O  0.55002351  0.80513142  0.30282098    -1.13900
O695        O  0.48224043  0.72924393  0.31391461    -0.76300
O696        O  0.53491589  0.72653526  0.30698500    -0.79800
O697        O  0.62083395  0.87684726  0.29449847    -0.80500
C698        C  0.49982460  0.71083411  0.31695553     0.94700
O699        O  0.59025478  0.78315625  0.24127330    -0.78500
O700        O  0.47398388  0.79884197  0.30756666    -0.83700
C701        C  0.53215624  0.85493450  0.22832841     0.97400
C702        C  0.48429433  0.82363916  0.34077099     1.03300
O703        O  0.54936970  0.87304690  0.26591296    -0.79300
C704        C  0.56380553  0.76967771  0.21036695     1.01600
Fe705      Fe  0.52196502  0.08656557  0.13915262     1.65800
Fe706      Fe  0.60895935  0.09596075  0.15196208     1.73200
Fe707      Fe  0.59764815  0.16705747  0.10477809     1.54400
O708        O  0.55728303  0.14249279  0.04908938    -0.83000
O709        O  0.65063054  0.14745154  0.17554819    -0.81400
O710        O  0.51598305  0.08122610  0.06657888    -0.85600
O711        O  0.51151046  0.13092778  0.13599478    -0.80400
O712        O  0.63197013  0.15663020  0.06463869    -0.82200
O713        O  0.58348564  0.08727583  0.21972927    -0.84900
C714        C  0.52995600  0.16569513  0.14649659     0.95800
C715        C  0.53286690  0.10825917  0.03681212     1.03300
O716        O  0.57678866  0.11648163  0.13165276    -1.13900
O717        O  0.57340769  0.04077911  0.12861637    -0.76300
O718        O  0.51697886  0.03395818  0.14203083    -0.79800
O719        O  0.56573224  0.18380462  0.14554283    -0.80500
C720        C  0.53773382  0.02041597  0.13056553     0.94700
O721        O  0.53217159  0.09471807  0.21113688    -0.78500
O722        O  0.63792042  0.10702203  0.08665333    -0.83700
C723        C  0.66189857  0.18264195  0.17391289     0.97400
C724        C  0.64623812  0.13542082  0.05981570     1.03300
O725        O  0.64266570  0.19555364  0.15361474    -0.79300
C726        C  0.55823830  0.09442712  0.23632826     1.01600
Fe727      Fe  0.43787253  0.91462738  0.11229038     1.65800
Fe728      Fe  0.51399267  0.90555023  0.09898073     1.73200
Fe729      Fe  0.43418398  0.83714831  0.15421988     1.54400
O730        O  0.41775302  0.86486810  0.20517539    -0.83000
O731        O  0.50210064  0.85467870  0.07125923    -0.81400
O732        O  0.44284138  0.92622602  0.18370254    -0.85600
O733        O  0.38390021  0.87052139  0.12552938    -0.80400
O734        O  0.47864320  0.85039873  0.19803911    -0.82200
O735        O  0.49663158  0.91691133  0.03263135    -0.84900
C736        C  0.36776183  0.83686619  0.11033149     0.95800
C737        C  0.43091857  0.90024137  0.21525729     1.03300
O738        O  0.46275314  0.88537650  0.12214001    -1.13900
O739        O  0.53283300  0.95939088  0.12695830    -0.76300
O740        O  0.48608440  0.96586914  0.09882783    -0.79800
O741        O  0.38546435  0.81859708  0.11096480    -0.80500
C742        C  0.51831103  0.97983323  0.11820786     0.94700
O743        O  0.43504392  0.90019698  0.04161062    -0.78500
O744        O  0.53301224  0.89208941  0.16167597    -0.83700
C745        C  0.48210816  0.81995064  0.08255043     0.97400
C746        C  0.51454314  0.86897594  0.19531167     1.03300
O747        O  0.45325513  0.80744288  0.11025035    -0.79300
C748        C  0.46312159  0.90522992  0.01578819     1.01600
Fe749      Fe  0.88439667  0.13813500  0.47314139     1.65800
Fe750      Fe  0.88904283  0.06485526  0.43098392     1.73200
Fe751      Fe  0.80888154  0.05234475  0.48649912     1.54400
O752        O  0.82452834  0.07960309  0.05149909    -0.83000
O753        O  0.84481232  0.03381268  0.38675464    -0.81400
O754        O  0.88607180  0.12493302  0.04314391    -0.85600
O755        O  0.83570095  0.14033932  0.48564377    -0.80400
O756        O  0.81872084  0.01235856  0.01105407    -0.82200
O757        O  0.90589725  0.10933341  0.38039891    -0.84900
C758        C  0.80362363  0.12152765  0.46605841     0.95800
C759        C  0.85806385  0.10117378  0.06855072     1.03300
O760        O  0.86010150  0.08403226  0.46321831    -1.13900
O761        O  0.93774680  0.09520585  0.47397540    -0.76300
O762        O  0.93858791  0.14864558  0.46083155    -0.79800
O763        O  0.78944922  0.08651895  0.45780432    -0.80500
C764        C  0.95525442  0.13121116  0.47432687     0.94700
O765        O  0.88020819  0.14510792  0.40156111    -0.78500
O766        O  0.86986521  0.01579981  0.47472860    -0.83700
C767        C  0.80895057  0.01562015  0.38998258     0.97400
C768        C  0.84006773  0.99874582  0.00216529     1.03300
O769        O  0.79037261  0.01938508  0.42418928    -0.79300
C770        C  0.89300441  0.13172463  0.37021616     1.01600
Fe771      Fe  0.80084943  0.22381177  0.44407357     1.65800
Fe772      Fe  0.71373308  0.14696401  0.43134440     1.73200
Fe773      Fe  0.72646385  0.22978817  0.47867594     1.54400
O774        O  0.76576529  0.24567589  0.03430957    -0.83000
O775        O  0.67312050  0.15758907  0.40583876    -0.81400
O776        O  0.80571437  0.22392062  0.01736887    -0.85600
O777        O  0.81244988  0.27906469  0.45032383    -0.80400
O778        O  0.69055762  0.18577196  0.01880713    -0.82200
O779        O  0.74062540  0.16334182  0.36415745    -0.84900
C780        C  0.79469973  0.29562815  0.43768813     0.95800
C781        C  0.78938769  0.23490753  0.04691917     1.03300
O782        O  0.74621452  0.19944132  0.45174718    -1.13900
O783        O  0.74861939  0.12753024  0.45735990    -0.76300
O784        O  0.80440433  0.17551405  0.43736644    -0.79800
O785        O  0.75890466  0.27798182  0.43696567    -0.80500
C786        C  0.78404698  0.14217239  0.45265143     0.94700
O787        O  0.79019011  0.22322759  0.37256924    -0.78500
O788        O  0.68338716  0.12929827  0.49577032    -0.83700
C789        C  0.66210106  0.18166573  0.40884663     0.97400
C790        C  0.67595679  0.15021142  0.02363940     1.03300
O791        O  0.68129513  0.21335488  0.43029037    -0.79300
C792        C  0.76478128  0.19619698  0.34744054     1.01600
Fe793      Fe  0.10637002  0.25032665  0.77583108     1.65800
Fe794      Fe  0.18109520  0.23879399  0.76110354     1.73200
Fe795      Fe  0.10184584  0.17292790  0.81971620     1.54400
O796        O  0.08302037  0.19981311  0.86813580    -0.83000
O797        O  0.16568104  0.18764122  0.73079172    -0.81400
O798        O  0.11010223  0.26128962  0.84758057    -0.85600
O799        O  0.05183985  0.20600881  0.78615225    -0.80400
O800        O  0.14621810  0.18898792  0.86513882    -0.82200
O801        O  0.16519965  0.25295526  0.69577483    -0.84900
C802        C  0.03539341  0.17134239  0.77438933     0.95800
C803        C  0.09667830  0.23502958  0.87873562     1.03300
O804        O  0.13032756  0.22028812  0.78567497    -1.13900
O805        O  0.20190734  0.29239442  0.79099877    -0.76300
O806        O  0.15581225  0.30109572  0.76488405    -0.79800
O807        O  0.05326079  0.15314219  0.77596707    -0.80500
C808        C  0.18793651  0.31365276  0.78427755     0.94700
O809        O  0.10402003  0.23695315  0.70489603    -0.78500
O810        O  0.19949938  0.22284361  0.82243342    -0.83700
C811        C  0.14869493  0.15410508  0.74717686     0.97400
C812        C  0.18172379  0.20376782  0.85928318     1.03300
O813        O  0.12242630  0.14295540  0.77865160    -0.79300
C814        C  0.13182312  0.24160151  0.67897667     1.01600
Fe815      Fe  0.19088392  0.41833897  0.80866950     1.65800
Fe816      Fe  0.26532701  0.49889526  0.77322552     1.73200
Fe817      Fe  0.27802439  0.42897772  0.82138708     1.54400
O818        O  0.25105097  0.41824334  0.88859128    -0.83000
O819        O  0.29934990  0.48876553  0.73210240    -0.81400
O820        O  0.20097717  0.42772357  0.88026551    -0.85600
O821        O  0.18735204  0.36647231  0.81490511    -0.80400
O822        O  0.31858329  0.48050693  0.84682623    -0.82200
O823        O  0.22407338  0.47316616  0.71849875    -0.84900
C824        C  0.20772474  0.35366117  0.79917010     0.95800
C825        C  0.22621187  0.42590464  0.90545907     1.03300
O826        O  0.24556010  0.44890893  0.80097570    -1.13900
O827        O  0.23329564  0.51508550  0.81494139    -0.76300
O828        O  0.17962036  0.46224314  0.80284902    -0.79800
O829        O  0.24322377  0.37451294  0.79509525    -0.80500
C830        C  0.19749087  0.49679061  0.81474536     0.94700
O831        O  0.18513333  0.41144303  0.73626494    -0.78500
O832        O  0.31124591  0.52823786  0.82078995    -0.83700
C833        C  0.31506725  0.46877235  0.72870616     0.97400
C834        C  0.33015861  0.51572091  0.84288268     1.03300
O835        O  0.30839200  0.44163384  0.75701919    -0.79300
C836        C  0.20082051  0.43852359  0.70633508     1.01600
Fe837      Fe  0.55386217  0.47392978  0.64082231     1.65800
Fe838      Fe  0.55754258  0.39997716  0.59876509     1.73200
Fe839      Fe  0.47764360  0.38850192  0.65399292     1.54400
O840        O  0.49429817  0.41719332  0.72025531    -0.83000
O841        O  0.51299993  0.36904288  0.55453146    -0.81400
O842        O  0.55578423  0.46227810  0.71175393    -0.85600
O843        O  0.50543468  0.47692642  0.65239822    -0.80400
O844        O  0.48976059  0.34999109  0.68233116    -0.82200
O845        O  0.57500242  0.44437245  0.54824044    -0.84900
C846        C  0.47306802  0.45800440  0.63349996     0.95800
C847        C  0.52767274  0.43899343  0.73733322     1.03300
O848        O  0.52901312  0.41976098  0.63083803    -1.13900
O849        O  0.60630449  0.42997073  0.64185680    -0.76300
O850        O  0.60797636  0.48389645  0.62926185    -0.79800
O851        O  0.45866052  0.42296288  0.62559728    -0.80500
C852        C  0.62420392  0.46598541  0.64258708     0.94700
O853        O  0.55027004  0.48102178  0.56926157    -0.78500
O854        O  0.53799868  0.35108053  0.64250089    -0.83700
C855        C  0.47707026  0.35166356  0.55739971     0.97400
C856        C  0.50936803  0.33499164  0.67054675     1.03300
O857        O  0.45875840  0.35596670  0.59146029    -0.79300
C858        C  0.56258314  0.46711444  0.53802394     1.01600
Fe859      Fe  0.46821791  0.55944524  0.61179011     1.65800
Fe860      Fe  0.38174722  0.48175280  0.59993394     1.73200
Fe861      Fe  0.39292105  0.56401897  0.64729907     1.54400
O862        O  0.43404486  0.58023301  0.70204074    -0.83000
O863        O  0.34015292  0.49144691  0.57581262    -0.81400
O864        O  0.47410417  0.55884562  0.68411647    -0.85600
O865        O  0.47845877  0.61412160  0.61720211    -0.80400
O866        O  0.35927603  0.51950390  0.68839404    -0.82200
O867        O  0.40765108  0.49820017  0.53226242    -0.84900
C868        C  0.46013325  0.63020033  0.60510865     0.95800
C869        C  0.45772915  0.56942073  0.71407359     1.03300
O870        O  0.41354417  0.53440927  0.61982897    -1.13900
O871        O  0.41761677  0.46310074  0.62457905    -0.76300
O872        O  0.47328415  0.51205983  0.60636565    -0.79800
O873        O  0.42433479  0.61231698  0.60542125    -0.80500
C874        C  0.45316471  0.47840840  0.62059927     0.94700
O875        O  0.45773011  0.55791332  0.54003425    -0.78500
O876        O  0.35255523  0.46386409  0.66502365    -0.83700
C877        C  0.32838859  0.51495513  0.57863021     0.97400
C878        C  0.34481468  0.48393226  0.69264942     1.03300
O879        O  0.34724058  0.54688989  0.59956186    -0.79300
C880        C  0.43240464  0.53061832  0.51509849     1.01600
Fe881      Fe  0.24693146  0.11650803  0.97917785     1.65800
Fe882      Fe  0.23435471  0.19099530  0.99141336     1.73200
Fe883      Fe  0.16938835  0.11091178  0.93377244     1.54400
O884        O  0.19553990  0.09013483  0.88735479    -0.83000
O885        O  0.18351712  0.17446777  0.52386267    -0.81400
O886        O  0.25702781  0.11818645  0.90710531    -0.85600
O887        O  0.20196330  0.06175418  0.97258716    -0.80400
O888        O  0.18682450  0.15421728  0.88650020    -0.82200
O889        O  0.25072072  0.17714515  0.55707738    -0.84900
C890        C  0.16682502  0.04559085  0.98245262     0.95800
C891        C  0.23068388  0.10458610  0.87611276     1.03300
O892        O  0.21647749  0.13987414  0.96830249    -1.13900
O893        O  0.28769482  0.21191487  0.96069070    -0.76300
O894        O  0.29771710  0.16653282  0.98693479    -0.79800
O895        O  0.14882546  0.06354552  0.97923740    -0.80500
C896        C  0.30945903  0.19845882  0.96726969     0.94700
O897        O  0.23423636  0.11579746  0.55009475    -0.78500
O898        O  0.21642196  0.20750165  0.92990725    -0.83700
C899        C  0.15060526  0.15837867  0.50570795     0.97400
C900        C  0.19860406  0.18915583  0.89265853     1.03300
O901        O  0.13973222  0.13263039  0.97292008    -0.79300
C902        C  0.23930508  0.14415726  0.57506282     1.01600
Fe903      Fe  0.41154726  0.19903707  0.93884269     1.65800
Fe904      Fe  0.42402707  0.28590111  0.92692531     1.73200
Fe905      Fe  0.48905949  0.27093033  0.98429505     1.54400
O906        O  0.46208131  0.22379696  0.53004682    -0.83000
O907        O  0.47489440  0.32067211  0.89547068    -0.81400
O908        O  0.40062782  0.19077370  0.51053263    -0.85600
O909        O  0.45652830  0.18929337  0.94555260    -0.80400
O910        O  0.46884282  0.29550008  0.53120807    -0.82200
O911        O  0.40785033  0.25628538  0.86137670    -0.84900
C912        C  0.49155051  0.20833209  0.93506181     0.95800
C913        C  0.42698208  0.20361764  0.54152408     1.03300
O914        O  0.44197633  0.25279537  0.94986086    -1.13900
O915        O  0.37085330  0.25353280  0.95802077    -0.76300
O916        O  0.36083861  0.19837762  0.93083548    -0.79800
O917        O  0.50951351  0.24432058  0.93820668    -0.80500
C918        C  0.34907908  0.21835393  0.95102809     0.94700
O919        O  0.42350694  0.21077813  0.86784480    -0.78500
O920        O  0.44220739  0.32032260  0.98829844    -0.83700
C921        C  0.50804671  0.33730080  0.91296140     0.97400
C922        C  0.45908333  0.32010071  0.52421036     1.03300
O923        O  0.51851250  0.32243394  0.94547740    -0.79300
C924        C  0.41871428  0.23435825  0.84315630     1.01600
Fe925      Fe  0.55173472  0.09005469  0.88959730     1.65800
Fe926      Fe  0.55604328  0.16755098  0.84680045     1.73200
Fe927      Fe  0.47592901  0.09967324  0.90223414     1.54400
O928        O  0.45688393  0.04601157  0.87363671    -0.83000
O929        O  0.53636485  0.19719466  0.89003906    -0.81400
O930        O  0.50318146  0.03898977  0.90235750    -0.85600
O931        O  0.55406800  0.10464005  0.96022303    -0.80400
O932        O  0.45755115  0.11398992  0.83980840    -0.82200
O933        O  0.60456851  0.18623236  0.89036800    -0.84900
C934        C  0.52587369  0.09974371  0.98567986     0.95800
C935        C  0.47115451  0.02535632  0.88251094     1.03300
O936        O  0.52719646  0.11948758  0.87915386    -1.13900
O937        O  0.57348805  0.14013490  0.79686118    -0.76300
O938        O  0.54764831  0.07865006  0.81807554    -0.79800
O939        O  0.49239907  0.08746543  0.96851338    -0.80500
C940        C  0.56043581  0.10482759  0.78670254     0.94700
O941        O  0.60577440  0.13386723  0.87705460    -0.78500
O942        O  0.51190451  0.15383380  0.80199344    -0.83700
C943        C  0.50805723  0.18500301  0.91863851     0.97400
C944        C  0.47603657  0.13617661  0.80543427     1.03300
O945        O  0.48838521  0.15044265  0.93075535    -0.79300
C946        C  0.62221865  0.16787744  0.89088912     1.01600
Fe947      Fe  0.46742165  0.91897319  0.86255027     1.65800
Fe948      Fe  0.39195435  0.83849179  0.89545920     1.73200
Fe949      Fe  0.38059917  0.90955592  0.84854618     1.54400
O950        O  0.41603445  0.96443843  0.87277199    -0.83000
O951        O  0.34741049  0.81022001  0.84603682    -0.81400
O952        O  0.47223999  0.97142105  0.85735655    -0.85600
O953        O  0.45751640  0.90996439  0.79058906    -0.80400
O954        O  0.35106169  0.89814934  0.91336718    -0.82200
O955        O  0.42465661  0.82238113  0.85499627    -0.84900
C956        C  0.43189980  0.91096971  0.76513474     0.95800
C957        C  0.45164249  0.98488128  0.86988535     1.03300
O958        O  0.41264209  0.88904933  0.86918803    -1.13900
O959        O  0.43184545  0.86310022  0.95177707    -0.76300
O960        O  0.47251486  0.92476558  0.93517940    -0.79800
O961        O  0.40701163  0.91876355  0.78141894    -0.80500
C962        C  0.45593791  0.89733845  0.96456067     0.94700
O963        O  0.47825028  0.87491023  0.86825903    -0.78500
O964        O  0.35712144  0.84853206  0.93493710    -0.83700
C965        C  0.32787943  0.82292880  0.82603219     0.97400
C966        C  0.34272033  0.86960816  0.93991397     1.03300
O967        O  0.33892797  0.85809817  0.82430479    -0.79300
C968        C  0.46044661  0.84053060  0.85591533     1.01600
Fe969      Fe  0.24694513  0.14192666  0.72915917     1.65800
Fe970      Fe  0.17036433  0.06939091  0.68400848     1.73200
Fe971      Fe  0.23526905  0.05531164  0.74300213     1.54400
O972        O  0.28805316  0.08717059  0.71104382    -0.83000
O973        O  0.14172352  0.01815903  0.72316233    -0.81400
O974        O  0.29775833  0.14273806  0.73661024    -0.85600
O975        O  0.23518981  0.13043989  0.80033258    -0.80400
O976        O  0.21642173  0.01938498  0.68276307    -0.82200
O977        O  0.14875234  0.09533002  0.72934223    -0.84900
C978        C  0.24030886  0.10723167  0.82533262     0.95800
C979        C  0.30957404  0.12252471  0.71709783     1.03300
O980        O  0.21717220  0.08815447  0.71888434    -1.13900
O981        O  0.19523944  0.11630531  0.63770424    -0.76300
O982        O  0.25673598  0.15017124  0.65680199    -0.79800
O983        O  0.25224156  0.08609786  0.80749534    -0.80500
C984        C  0.23019752  0.13726576  0.62603571     0.94700
O985        O  0.20142328  0.15091473  0.72309143    -0.78500
O986        O  0.18994826  0.04501630  0.63726455    -0.83700
C987        C  0.15186881  0.00427488  0.75718010     0.97400
C988        C  0.19995451  0.02061547  0.64461107     1.03300
O989        O  0.18466529  0.02163041  0.77559060    -0.79300
C990        C  0.16623608  0.13133657  0.73254443     1.01600
Fe991      Fe  0.41127259  0.22478249  0.68898693     1.65800
Fe992      Fe  0.48788589  0.22892879  0.73474695     1.73200
Fe993      Fe  0.42376603  0.15044458  0.67421386     1.54400
O994        O  0.37076412  0.12879266  0.70599804    -0.83000
O995        O  0.51696338  0.20660388  0.69595982    -0.81400
O996        O  0.36056907  0.17468528  0.68172473    -0.85600
O997        O  0.42268649  0.22515458  0.61750705    -0.80400
O998        O  0.44282333  0.13328357  0.73395532    -0.82200
O999        O  0.50989803  0.27672660  0.69000707    -0.84900
C1000       C  0.41758142  0.19685770  0.59236489     0.95800
C1001       C  0.34902902  0.14246789  0.70056840     1.03300
O1002       O  0.44132734  0.20108573  0.69904684    -1.13900
O1003       O  0.46283802  0.25090399  0.78071131    -0.76300
O1004       O  0.40142117  0.22307993  0.76137864    -0.79800
O1005       O  0.40623107  0.16393702  0.61016443    -0.80500
C1006       C  0.42786952  0.23674790  0.79223864     0.94700
O1007       O  0.45689643  0.27918053  0.69517960    -0.78500
O1008       O  0.46770779  0.18453113  0.78094063    -0.83700
C1009       C  0.50730157  0.18322782  0.66123624     0.97400
C1010       C  0.45854906  0.15045220  0.77264951     1.03300
O1011       O  0.47485870  0.16853708  0.64181161    -0.79300
C1012       C  0.49220915  0.29498478  0.68623818     1.01600
Fe1013     Fe  0.10566610  0.86689733  0.52845372     1.65800
Fe1014     Fe  0.10213932  0.94066722  0.57026123     1.73200
Fe1015     Fe  0.18178880  0.95210005  0.51474949     1.54400
O1016       O  0.20041546  0.91714275  0.54332058    -0.83000
O1017       O  0.12167891  0.98965729  0.52648024    -0.81400
O1018       O  0.15380725  0.86389225  0.51492133    -0.85600
O1019       O  0.10294816  0.87866492  0.95826660    -0.80400
O1020       O  0.20082714  0.98495303  0.57721725    -0.82200
O1021       O  0.05337775  0.91054258  0.52690996    -0.84900
C1022       C  0.13111761  0.90196973  0.93272765     0.95800
C1023       C  0.18584746  0.88212758  0.53472367     1.03300
O1024       O  0.13059967  0.92103802  0.53808859    -1.13900
O1025       O  0.08518380  0.89635757  0.62095808    -0.76300
O1026       O  0.11076220  0.86047040  0.59993729    -0.79800
O1027       O  0.16464679  0.92349644  0.94972248    -0.80500
C1028       C  0.09843535  0.87430626  0.63129606     0.94700
O1029       O  0.05180551  0.85708780  0.54187877    -0.78500
O1030       O  0.14653908  0.97134249  0.61449096    -0.83700
C1031       C  0.15029155  0.00575000  0.99885767     0.97400
C1032       C  0.18242295  0.98902435  0.61143216     1.03300
O1033       O  0.17093546  0.99149490  0.98889032    -0.79300
C1034       C  0.03558484  0.87451450  0.52675919     1.01600
Fe1035     Fe  0.18933836  0.77924198  0.55505964     1.65800
Fe1036     Fe  0.26478281  0.77445159  0.52155896     1.73200
Fe1037     Fe  0.27599881  0.85673228  0.56901950     1.54400
O1038       O  0.24072317  0.87613799  0.54459959    -0.83000
O1039       O  0.30957684  0.79114380  0.57061107    -0.81400
O1040       O  0.18449465  0.82694605  0.56013528    -0.85600
O1041       O  0.19915427  0.78011292  0.62711444    -0.80400
O1042       O  0.30575489  0.87491310  0.50415836    -0.82200
O1043       O  0.23255810  0.72579778  0.56259981    -0.84900
C1044       C  0.22459526  0.80678353  0.65271971     0.95800
C1045       C  0.20514276  0.86100566  0.54747747     1.03300
O1046       O  0.24408398  0.80420589  0.54822090    -1.13900
O1047       O  0.22443764  0.75858204  0.96527072    -0.76300
O1048       O  0.18278211  0.77797646  0.98328864    -0.79800
O1049       O  0.24952574  0.83947809  0.63636135    -0.80500
C1050       C  0.19962425  0.76794046  0.95330030     0.94700
O1051       O  0.17878777  0.72435254  0.54947279    -0.78500
O1052       O  0.29910177  0.81919575  0.98133006    -0.83700
C1053       C  0.32860771  0.82312414  0.59142555     0.97400
C1054       C  0.31313229  0.85464474  0.97618658     1.03300
O1055       O  0.31735715  0.84700781  0.59352047    -0.79300
C1056       C  0.19676339  0.70798446  0.56198757     1.01600
Fe1057     Fe  0.21805433  0.80493503  0.80608154     1.65800
Fe1058     Fe  0.22239039  0.73144803  0.76459089     1.73200
Fe1059     Fe  0.14178058  0.71946629  0.81834704     1.54400
O1060       O  0.15878074  0.74760754  0.88517139    -0.83000
O1061       O  0.17808214  0.69966654  0.72105793    -0.81400
O1062       O  0.22035586  0.79279659  0.87668212    -0.85600
O1063       O  0.16978369  0.80768984  0.81925877    -0.80400
O1064       O  0.15313081  0.67996038  0.84555717    -0.82200
O1065       O  0.23862475  0.77535832  0.71324652    -0.84900
C1066       C  0.13786252  0.78965798  0.79919479     0.95800
C1067       C  0.19229189  0.76926518  0.90219833     1.03300
O1068       O  0.19336915  0.75081894  0.79601725    -1.13900
O1069       O  0.27127134  0.76223727  0.80724922    -0.76300
O1070       O  0.27230255  0.81558437  0.79337235    -0.79800
O1071       O  0.12327182  0.75470647  0.79033258    -0.80500
C1072       C  0.28890347  0.79822716  0.80733657     0.94700
O1073       O  0.21375306  0.81190085  0.73451426    -0.78500
O1074       O  0.20362517  0.68298483  0.80927380    -0.83700
C1075       C  0.14216534  0.68262601  0.72261895     0.97400
C1076       C  0.17409653  0.66599992  0.83583874     1.03300
O1077       O  0.12317076  0.68753506  0.75526707    -0.79300
C1078       C  0.22598643  0.79799090  0.70309307     1.01600
Fe1079     Fe  0.13537160  0.89316075  0.77932115     1.65800
Fe1080     Fe  0.05998072  0.89853933  0.81323089     1.73200
Fe1081     Fe  0.04826708  0.81622872  0.76537486     1.54400
O1082       O  0.07418662  0.83333952  0.69800410    -0.83000
O1083       O  0.02512794  0.85352919  0.85282256    -0.81400
O1084       O  0.12573019  0.89198410  0.70711488    -0.85600
O1085       O  0.13983143  0.84530813  0.77509156    -0.80400
O1086       O  0.00712282  0.82676891  0.74205981    -0.82200
O1087       O  0.10002387  0.91359800  0.86923321    -0.84900
C1088       C  0.11882050  0.81103780  0.78653674     0.95800
C1089       C  0.09983283  0.86562190  0.68160766     1.03300
O1090       O  0.08058407  0.86865556  0.78626060    -1.13900
O1091       O  0.09257927  0.94717603  0.77263902    -0.76300
O1092       O  0.14634223  0.94809427  0.78419481    -0.79800
O1093       O  0.08320878  0.79600072  0.78851803    -0.80500
C1094       C  0.12835763  0.96457740  0.77235067     0.94700
O1095       O  0.14062700  0.89273238  0.85192157    -0.78500
O1096       O  0.01521032  0.88281627  0.76422120    -0.83700
C1097       C  0.01082544  0.81798694  0.85739724     0.97400
C1098       C  0.99591838  0.85071732  0.74382494     1.03300
O1099       O  0.01914126  0.79800753  0.83041163    -0.79300
C1100       C  0.12404019  0.90329317  0.88161202     1.01600
Fe1101     Fe  0.91392334  0.44760186  0.64654230     1.65800
Fe1102     Fe  0.83687060  0.44307328  0.60190605     1.73200
Fe1103     Fe  0.90212010  0.52240224  0.65986743     1.54400
O1104       O  0.91898982  0.50855845  0.72436914    -0.83000
O1105       O  0.85474319  0.48678087  0.55524841    -0.81400
O1106       O  0.90175976  0.44701282  0.71758094    -0.85600
O1107       O  0.96453499  0.49747109  0.65504252    -0.80400
O1108       O  0.85154259  0.50620020  0.69231954    -0.82200
O1109       O  0.86270289  0.42237277  0.55483666    -0.84900
C1110       C  0.97615156  0.52889723  0.63415410     0.95800
C1111       C  0.90706520  0.47553979  0.74238050     1.03300
O1112       O  0.88386623  0.47140835  0.63625831    -1.13900
O1113       O  0.81619809  0.39558318  0.64706211    -0.76300
O1114       O  0.86883625  0.39302418  0.63912534    -0.79800
O1115       O  0.95461031  0.54259708  0.62756812    -0.80500
C1116       C  0.83383694  0.37724639  0.64954229     0.94700
O1117       O  0.92419754  0.44994326  0.57446057    -0.78500
O1118       O  0.80781720  0.46494254  0.64182864    -0.83700
C1119       C  0.86595132  0.52151757  0.56216980     0.97400
C1120       C  0.81837804  0.48996147  0.67477529     1.03300
O1121       O  0.88353496  0.53950123  0.59964840    -0.79300
C1122       C  0.89782056  0.43667817  0.54349304     1.01600
Fe1123     Fe  0.07818797  0.52937504  0.60495689     1.65800
Fe1124     Fe  0.08940981  0.61609946  0.59169173     1.73200
Fe1125     Fe  0.15507178  0.60233343  0.64926482     1.54400
O1126       O  0.12985800  0.55589650  0.69662646    -0.83000
O1127       O  0.13990045  0.65130593  0.55974813    -0.81400
O1128       O  0.06841067  0.52122423  0.67728665    -0.85600
O1129       O  0.12364008  0.52007134  0.61109470    -0.80400
O1130       O  0.13686580  0.62787870  0.69584368    -0.82200
O1131       O  0.07324754  0.58579274  0.52690258    -0.84900
C1132       C  0.15877055  0.53970727  0.60142050     0.95800
C1133       C  0.09485297  0.53466071  0.70819156     1.03300
O1134       O  0.10794185  0.58338949  0.61515331    -1.13900
O1135       O  0.03687910  0.58360680  0.62330468    -0.76300
O1136       O  0.02711259  0.52809675  0.59759592    -0.79800
O1137       O  0.17603105  0.57571060  0.60408930    -0.80500
C1138       C  0.01540385  0.54832459  0.61727846     0.94700
O1139       O  0.08993567  0.54108395  0.53379039    -0.78500
O1140       O  0.10721061  0.65133306  0.65228907    -0.83700
C1141       C  0.17315261  0.66805876  0.57694931     0.97400
C1142       C  0.12518186  0.65109222  0.68940923     1.03300
O1143       O  0.18385694  0.65334566  0.60938051    -0.79300
C1144       C  0.08509682  0.56460505  0.50900988     1.01600
Fe1145     Fe  0.77307927  0.58220514  0.94565427     1.65800
Fe1146     Fe  0.84903243  0.57259504  0.93405251     1.73200
Fe1147     Fe  0.76805137  0.50357611  0.98653107     1.54400
O1148       O  0.75139233  0.53240342  0.53845879    -0.83000
O1149       O  0.83801554  0.52152471  0.90828690    -0.81400
O1150       O  0.77818653  0.59391799  0.51738670    -0.85600
O1151       O  0.71895040  0.53885818  0.95843770    -0.80400
O1152       O  0.81301394  0.51937018  0.53376461    -0.82200
O1153       O  0.83224726  0.58299255  0.86675721    -0.84900
C1154       C  0.70218612  0.50502041  0.94415475     0.95800
C1155       C  0.76544640  0.56778925  0.54878870     1.03300
O1156       O  0.79739700  0.55238935  0.95574137    -1.13900
O1157       O  0.86781585  0.62661718  0.96083172    -0.76300
O1158       O  0.82128883  0.63340586  0.93285947    -0.79800
O1159       O  0.71944409  0.48636034  0.94396331    -0.80500
C1160       C  0.85345661  0.64714527  0.95218248     0.94700
O1161       O  0.77105363  0.56829269  0.87484020    -0.78500
O1162       O  0.86720140  0.56030240  0.99794156    -0.83700
C1163       C  0.81628251  0.48640693  0.91606484     0.97400
C1164       C  0.84877503  0.53607498  0.52930513     1.03300
O1165       O  0.78596907  0.47357584  0.94112426    -0.79300
C1166       C  0.79907324  0.57242861  0.84950771     1.01600
Fe1167     Fe  0.85709990  0.75301386  0.97269092     1.65800
Fe1168     Fe  0.94396744  0.76293460  0.98559770     1.73200
Fe1169     Fe  0.93200320  0.83357454  0.93882893     1.54400
O1170       O  0.89148513  0.80846198  0.88330156    -0.83000
O1171       O  0.98602034  0.81461673  0.50908378    -0.81400
O1172       O  0.85205232  0.74661542  0.90021527    -0.85600
O1173       O  0.84625066  0.79698458  0.96625973    -0.80400
O1174       O  0.96644446  0.82370083  0.89829643    -0.82200
O1175       O  0.91900990  0.75366376  0.55308610    -0.84900
C1176       C  0.86391722  0.83114348  0.97952263     0.95800
C1177       C  0.86838664  0.77391275  0.87064027     1.03300
O1178       O  0.91177963  0.78321354  0.96550937    -1.13900
O1179       O  0.90853763  0.70815822  0.96102663    -0.76300
O1180       O  0.85256535  0.70080042  0.97877814    -0.79800
O1181       O  0.89968044  0.84939508  0.98043760    -0.80500
C1182       C  0.87300796  0.68755285  0.96488249     0.94700
O1183       O  0.86808935  0.76192950  0.54510427    -0.78500
O1184       O  0.97329660  0.77464859  0.92050640    -0.83700
C1185       C  0.99687726  0.84973783  0.50722865     0.97400
C1186       C  0.98112733  0.80285757  0.89353823     1.03300
O1187       O  0.97711232  0.86224912  0.98738303    -0.79300
C1188       C  0.89403568  0.76109016  0.57002242     1.01600
Fe1189     Fe  0.88790458  0.75709557  0.72317863     1.65800
Fe1190     Fe  0.89020260  0.83332713  0.67923156     1.73200
Fe1191     Fe  0.81163375  0.76571422  0.73704411     1.54400
O1192       O  0.79290568  0.71242600  0.70754800    -0.83000
O1193       O  0.86894164  0.86224643  0.72116990    -0.81400
O1194       O  0.83967733  0.70562303  0.73553417    -0.85600
O1195       O  0.89025092  0.77146704  0.79392618    -0.80400
O1196       O  0.79245835  0.78066005  0.67565919    -0.82200
O1197       O  0.93885034  0.85380711  0.72321791    -0.84900
C1198       C  0.86178791  0.76557337  0.81948997     0.95800
C1199       C  0.80745529  0.69191660  0.71608811     1.03300
O1200       O  0.86258075  0.78574359  0.71286720    -1.13900
O1201       O  0.90919000  0.80672779  0.63035717    -0.76300
O1202       O  0.88368463  0.74545111  0.65177054    -0.79800
O1203       O  0.82825609  0.75250382  0.80232124    -0.80500
C1204       C  0.89602085  0.77143832  0.62024619     0.94700
O1205       O  0.94137402  0.80197889  0.71064468    -0.78500
O1206       O  0.84569928  0.81698568  0.63389251    -0.83700
C1207       C  0.84224959  0.85030719  0.75217990     0.97400
C1208       C  0.81004091  0.80085953  0.63943600     1.03300
O1209       O  0.82488967  0.81634545  0.76713029    -0.79300
C1210       C  0.95708635  0.83600537  0.72449389     1.01600
Fe1211     Fe  0.80293665  0.58522055  0.69614257     1.65800
Fe1212     Fe  0.72739789  0.50539331  0.73073352     1.73200
Fe1213     Fe  0.71667125  0.57664575  0.68299235     1.54400
O1214       O  0.75233197  0.63104488  0.70805220    -0.83000
O1215       O  0.68189834  0.47715482  0.68260332    -0.81400
O1216       O  0.80804785  0.63784259  0.68998919    -0.85600
O1217       O  0.79263923  0.57580077  0.62430852    -0.80400
O1218       O  0.68682498  0.56509700  0.74754768    -0.82200
O1219       O  0.75905511  0.48854002  0.68911176    -0.84900
C1220       C  0.76753608  0.57794504  0.59910623     0.95800
C1221       C  0.78782302  0.65143240  0.70374617     1.03300
O1222       O  0.74823592  0.55569604  0.70355000    -1.13900
O1223       O  0.76837245  0.52994377  0.78577296    -0.76300
O1224       O  0.80836030  0.59163882  0.76872533    -0.79800
O1225       O  0.74328824  0.58642849  0.61588191    -0.80500
C1226       C  0.79208182  0.56432771  0.79833147     0.94700
O1227       O  0.81303698  0.54067180  0.70238046    -0.78500
O1228       O  0.69360193  0.51634964  0.77162443    -0.83700
C1229       C  0.66325400  0.49024084  0.66116754     0.97400
C1230       C  0.67899164  0.53738240  0.77537528     1.03300
O1231       O  0.67513677  0.52552949  0.65805070    -0.79300
C1232       C  0.79487540  0.50635087  0.68976036     1.01600
Fe1233     Fe  0.52463421  0.44872198  0.89076014     1.65800
Fe1234     Fe  0.59920970  0.44293050  0.85577767     1.73200
Fe1235     Fe  0.61162612  0.52574775  0.90354732     1.54400
O1236       O  0.57669996  0.54535705  0.87783613    -0.83000
O1237       O  0.64464345  0.45979858  0.90349390    -0.81400
O1238       O  0.52064398  0.49682783  0.89588113    -0.85600
O1239       O  0.53474659  0.45000517  0.96252446    -0.80400
O1240       O  0.64201061  0.54332425  0.83907202    -0.82200
O1241       O  0.56751430  0.39478827  0.89782576    -0.84900
C1242       C  0.56006529  0.47702969  0.98771760     0.95800
C1243       C  0.54116116  0.53047780  0.88168062     1.03300
O1244       O  0.57928097  0.47318730  0.88310975    -1.13900
O1245       O  0.55814021  0.42671640  0.80094253    -0.76300
O1246       O  0.51885644  0.44913141  0.81818928    -0.79800
O1247       O  0.58483397  0.50957181  0.97085028    -0.80500
C1248       C  0.53474859  0.43778168  0.78848806     0.94700
O1249       O  0.51375219  0.39369613  0.88592600    -0.78500
O1250       O  0.63321548  0.48709362  0.81453998    -0.83700
C1251       C  0.66349440  0.49123710  0.92546020     0.97400
C1252       C  0.64893322  0.52282054  0.81107102     1.03300
O1253       O  0.65222895  0.51509701  0.92902577    -0.79300
C1254       C  0.53172143  0.37721088  0.89803266     1.01600
Fe1255     Fe  0.44006833  0.53301363  0.86130470     1.65800
Fe1256     Fe  0.43586378  0.60562328  0.90578156     1.73200
Fe1257     Fe  0.51472772  0.61897334  0.84643852     1.54400
O1258       O  0.53541802  0.58610581  0.87621956    -0.83000
O1259       O  0.45618282  0.65602259  0.86438821    -0.81400
O1260       O  0.48939080  0.53192745  0.84840165    -0.85600
O1261       O  0.43685763  0.54482715  0.79079577    -0.80400
O1262       O  0.53340107  0.65372538  0.90720880    -0.82200
O1263       O  0.38702376  0.57653088  0.86228506    -0.84900
C1264       C  0.46489956  0.56777725  0.76497282     0.95800
C1265       C  0.52145452  0.55102220  0.86814060     1.03300
O1266       O  0.46420518  0.58686876  0.87155480    -1.13900
O1267       O  0.41773207  0.55997363  0.95427200    -0.76300
O1268       O  0.44472946  0.52563097  0.93271736    -0.79800
O1269       O  0.49850637  0.58853131  0.78170736    -0.80500
C1270       C  0.43146623  0.53835722  0.96426901     0.94700
O1271       O  0.38588594  0.52265663  0.87396081    -0.78500
O1272       O  0.48047036  0.63407737  0.95074296    -0.83700
C1273       C  0.48210365  0.67093319  0.83242161     0.97400
C1274       C  0.51585797  0.65502520  0.94426374     1.03300
O1275       O  0.49905583  0.65438616  0.81597748    -0.79300
C1276       C  0.36933172  0.54043318  0.86114277     1.01600
Fe1277     Fe  0.57918537  0.80782035  0.56271326     1.65800
Fe1278     Fe  0.50217823  0.73528085  0.51701536     1.73200
Fe1279     Fe  0.56705345  0.72116227  0.57624717     1.54400
O1280       O  0.62013356  0.75297628  0.54480412    -0.83000
O1281       O  0.47313244  0.68400877  0.55620704    -0.81400
O1282       O  0.63034853  0.80888688  0.56967580    -0.85600
O1283       O  0.56731612  0.79632394  0.63404298    -0.80400
O1284       O  0.54855923  0.68566255  0.51572422    -0.82200
O1285       O  0.48066495  0.76153414  0.56207277    -0.84900
C1286       C  0.57215254  0.77289345  0.65899859     0.95800
C1287       C  0.64197911  0.78831596  0.55060752     1.03300
O1288       O  0.54912266  0.75403648  0.55208117    -1.13900
O1289       O  0.52817361  0.78208687  0.97143225    -0.76300
O1290       O  0.58960853  0.81581123  0.99087286    -0.79800
O1291       O  0.58378073  0.75156612  0.64101718    -0.80500
C1292       C  0.56321337  0.80284849  0.95993776     0.94700
O1293       O  0.53370322  0.81679534  0.55630102    -0.78500
O1294       O  0.52189833  0.71038637  0.97019340    -0.83700
C1295       C  0.48339517  0.67001850  0.58999820     0.97400
C1296       C  0.53285319  0.68668472  0.97717776     1.03300
O1297       O  0.51621384  0.68742469  0.60837075    -0.79300
C1298       C  0.49848287  0.79750699  0.56575705     1.01600
Fe1299     Fe  0.74449110  0.88904814  0.52199899     1.65800
Fe1300     Fe  0.82135655  0.89354623  0.56730776     1.73200
Fe1301     Fe  0.75610426  0.81423722  0.50898009     1.54400
O1302       O  0.70314158  0.79387213  0.54095963    -0.83000
O1303       O  0.85035037  0.87153944  0.52779934    -0.81400
O1304       O  0.69360418  0.83919991  0.51335372    -0.85600
O1305       O  0.75677714  0.88937291  0.95107415    -0.80400
O1306       O  0.77485568  0.79722492  0.56928653    -0.82200
O1307       O  0.84254154  0.94131400  0.52221001    -0.84900
C1308       C  0.75160832  0.86087243  0.92624731     0.95800
C1309       C  0.68160853  0.80761556  0.53407914     1.03300
O1310       O  0.77447853  0.86526070  0.53250400    -1.13900
O1311       O  0.79548055  0.91433594  0.61379433    -0.76300
O1312       O  0.73404199  0.88642472  0.59395088    -0.79800
O1313       O  0.73988531  0.82788919  0.94441457    -0.80500
C1314       C  0.76032157  0.89950716  0.62501316     0.94700
O1315       O  0.78973358  0.94360972  0.52961561    -0.78500
O1316       O  0.80297180  0.84973881  0.61407746    -0.83700
C1317       C  0.84000712  0.84685285  0.99489054     0.97400
C1318       C  0.79235407  0.81517252  0.60686794     1.03300
O1319       O  0.80668413  0.82988211  0.97790261    -0.79300
C1320       C  0.82478796  0.95955175  0.51931339     1.01600
Fe1321     Fe  0.85554207  0.11142123  0.72272072     1.65800
Fe1322     Fe  0.93087245  0.10695440  0.68740612     1.73200
Fe1323     Fe  0.94226335  0.18875208  0.73632498     1.54400
O1324       O  0.90699912  0.20783834  0.71104369    -0.83000
O1325       O  0.97726632  0.12449088  0.73465414    -0.81400
O1326       O  0.85105006  0.15924276  0.72920236    -0.85600
O1327       O  0.86552142  0.11181682  0.79433852    -0.80400
O1328       O  0.97253166  0.20724756  0.67180764    -0.82200
O1329       O  0.89914921  0.05849134  0.72939082    -0.84900
C1330       C  0.89060747  0.13881860  0.81979183     0.95800
C1331       C  0.87150992  0.19292534  0.71504425     1.03300
O1332       O  0.91035690  0.13641034  0.71529334    -1.13900
O1333       O  0.88939896  0.09057282  0.63287855    -0.76300
O1334       O  0.85001447  0.11283435  0.65037962    -0.79800
O1335       O  0.91524416  0.17157381  0.80333607    -0.80500
C1336       C  0.86601051  0.10171122  0.62056405     0.94700
O1337       O  0.84508722  0.05656736  0.71626072    -0.78500
O1338       O  0.96432885  0.15154264  0.64596218    -0.83700
C1339       C  0.99584824  0.15597161  0.75685156     0.97400
C1340       C  0.97953962  0.18730459  0.64293490     1.03300
O1341       O  0.98354457  0.17892421  0.76143634    -0.79300
C1342       C  0.86326913  0.04042177  0.72885010     1.01600
Fe1343     Fe  0.77178698  0.19829028  0.69433591     1.65800
Fe1344     Fe  0.76859439  0.27212008  0.73722420     1.73200
Fe1345     Fe  0.84797480  0.28353476  0.68088971     1.54400
O1346       O  0.86668540  0.24890023  0.71007763    -0.83000
O1347       O  0.78905763  0.32168173  0.69459214    -0.81400
O1348       O  0.82007892  0.19528917  0.68216205    -0.85600
O1349       O  0.76957633  0.20994708  0.62342134    -0.80400
O1350       O  0.86679576  0.31693986  0.74298194    -0.82200
O1351       O  0.72008074  0.24301819  0.69346016    -0.84900
C1352       C  0.79778586  0.23286992  0.59771049     0.95800
C1353       C  0.85213508  0.21381723  0.70188918     1.03300
O1354       O  0.79679068  0.25239203  0.70439313    -1.13900
O1355       O  0.75028700  0.22710493  0.78681952    -0.76300
O1356       O  0.77584827  0.19124287  0.76598081    -0.79800
O1357       O  0.83126389  0.25427777  0.61481837    -0.80500
C1358       C  0.76331283  0.20493420  0.79723933     0.94700
O1359       O  0.71790833  0.18886669  0.70625277    -0.78500
O1360       O  0.81286383  0.30172610  0.78225185    -0.83700
C1361       C  0.81682871  0.33726510  0.66520114     0.97400
C1362       C  0.84867111  0.32037545  0.77803811     1.03300
O1363       O  0.83548383  0.32162408  0.65173495    -0.79300
C1364       C  0.70200530  0.20698827  0.69242478     1.01600
Fe1365     Fe  0.13351329  0.25311015  0.52558033     1.65800
Fe1366     Fe  0.05914555  0.17266618  0.56139869     1.73200
Fe1367     Fe  0.04633639  0.24268822  0.51415267     1.54400
O1368       O  0.08159322  0.29747489  0.53925520    -0.83000
O1369       O  0.01367301  0.14351717  0.51345458    -0.81400
O1370       O  0.13720088  0.30510980  0.51890583    -0.85600
O1371       O  0.12296789  0.24246079  0.95455997    -0.80400
O1372       O  0.01677075  0.23058615  0.57934353    -0.82200
O1373       O  0.09124599  0.15656009  0.51979295    -0.84900
C1374       C  0.09813016  0.24481934  0.92916878     0.95800
C1375       C  0.11705392  0.31821310  0.53461592     1.03300
O1376       O  0.07890241  0.22274771  0.53403140    -1.13900
O1377       O  0.10038060  0.19852693  0.61604421    -0.76300
O1378       O  0.13984901  0.26019257  0.59797651    -0.79800
O1379       O  0.07382511  0.25328233  0.94591784    -0.80500
C1380       C  0.12418971  0.23308839  0.62796100     0.94700
O1381       O  0.14491276  0.20936330  0.53168249    -0.78500
O1382       O  0.02462137  0.18232380  0.60244147    -0.83700
C1383       C  0.99381098  0.15575347  0.99228239     0.97400
C1384       C  0.00941031  0.20272820  0.60680303     1.03300
O1385       O  0.00591105  0.19090386  0.98638524    -0.79300
C1386       C  0.12702233  0.17480223  0.51999351     1.01600
Fe1387     Fe  0.21889839  0.42110653  0.55844309     1.65800
Fe1388     Fe  0.22329958  0.49822523  0.51393862     1.73200
Fe1389     Fe  0.14471690  0.43331650  0.57377468     1.54400
O1390       O  0.12339081  0.37986735  0.54278028    -0.83000
O1391       O  0.20185256  0.52793087  0.55414631    -0.81400
O1392       O  0.16916011  0.37052923  0.56899464    -0.85600
O1393       O  0.22144669  0.43471550  0.62944913    -0.80400
O1394       O  0.12669739  0.45088376  0.51328511    -0.82200
O1395       O  0.27149633  0.51824760  0.55832876    -0.84900
C1396       C  0.19352057  0.42982521  0.65527170     0.95800
C1397       C  0.13711965  0.35831063  0.54939398     1.03300
O1398       O  0.19507895  0.45118279  0.54847864    -1.13900
O1399       O  0.24114956  0.47090529  0.96627888    -0.76300
O1400       O  0.21413270  0.40939320  0.98694566    -0.79800
O1401       O  0.16010144  0.41770599  0.63828408    -0.80500
C1402       C  0.22761372  0.43567612  0.95580833     0.94700
O1403       O  0.27311802  0.46544332  0.54799156    -0.78500
O1404       O  0.17820347  0.48246415  0.96912963    -0.83700
C1405       C  0.17683066  0.51730009  0.58721385     0.97400
C1406       C  0.14262871  0.46745826  0.97472610     1.03300
O1407       O  0.16162257  0.48443516  0.60550025    -0.79300
C1408       C  0.28929002  0.49995709  0.56025081     1.01600
Fe1409     Fe  0.91342661  0.47336907  0.89630240     1.65800
Fe1410     Fe  0.83684668  0.40122064  0.84989760     1.73200
Fe1411     Fe  0.90118641  0.38665290  0.90963411     1.54400
O1412       O  0.95412301  0.41859443  0.87792027    -0.83000
O1413       O  0.80774819  0.34979063  0.88850869    -0.81400
O1414       O  0.96424174  0.47416780  0.90396840    -0.85600
O1415       O  0.90144371  0.46181167  0.96752848    -0.80400
O1416       O  0.88248673  0.35090851  0.84928762    -0.82200
O1417       O  0.81479415  0.42708609  0.89493321    -0.84900
C1418       C  0.90654577  0.43856156  0.99250527     0.95800
C1419       C  0.97582637  0.45393302  0.88398758     1.03300
O1420       O  0.88336203  0.41966757  0.88560893    -1.13900
O1421       O  0.86240614  0.44841570  0.80432473    -0.76300
O1422       O  0.92375646  0.48174158  0.82419528    -0.79800
O1423       O  0.91803176  0.41711398  0.97447613    -0.80500
C1424       C  0.89749892  0.46889788  0.79310650     0.94700
O1425       O  0.86795103  0.48228684  0.88959815    -0.78500
O1426       O  0.85666368  0.37685451  0.80324574    -0.83700
C1427       C  0.81757648  0.33571395  0.92263789     0.97400
C1428       C  0.86628667  0.35220041  0.81093534     1.03300
O1429       O  0.85023534  0.35293804  0.94153562    -0.79300
C1430       C  0.83271548  0.46305669  0.89906260     1.01600
Fe1431     Fe  0.07771541  0.55533084  0.85529763     1.65800
Fe1432     Fe  0.15479455  0.56041587  0.90092167     1.73200
Fe1433     Fe  0.09000514  0.48076509  0.84261923     1.54400
O1434       O  0.03693532  0.46004583  0.87380557    -0.83000
O1435       O  0.18410922  0.53832220  0.86186504    -0.81400
O1436       O  0.02698063  0.50528205  0.84685784    -0.85600
O1437       O  0.09018299  0.55599132  0.78417405    -0.80400
O1438       O  0.10817372  0.46397594  0.90380757    -0.82200
O1439       O  0.17571274  0.60807329  0.85553824    -0.84900
C1440       C  0.08547447  0.52773218  0.75921485     0.95800
C1441       C  0.01525785  0.47358111  0.86717528     1.03300
O1442       O  0.10792667  0.53176929  0.86612043    -1.13900
O1443       O  0.12872064  0.58131600  0.94717421    -0.76300
O1444       O  0.06724521  0.55314488  0.92735359    -0.79800
O1445       O  0.07403455  0.49473331  0.77719857    -0.80500
C1446       C  0.09356729  0.56671394  0.95839837     0.94700
O1447       O  0.12270242  0.61000244  0.86273690    -0.78500
O1448       O  0.13678900  0.51683330  0.94805814    -0.83700
C1449       C  0.17380429  0.51312682  0.82914738     0.97400
C1450       C  0.12561186  0.48206363  0.94140166     1.03300
O1451       O  0.14083783  0.49688267  0.81112504    -0.79300
C1452       C  0.15776725  0.62613223  0.85246950     1.01600
Fe1453     Fe  0.74402450  0.86207335  0.77199846     1.65800
Fe1454     Fe  0.75615013  0.94896780  0.75725333     1.73200
Fe1455     Fe  0.82074949  0.93491549  0.81674434     1.54400
O1456       O  0.79575444  0.88813156  0.86335613    -0.83000
O1457       O  0.80709485  0.98278013  0.72482049    -0.81400
O1458       O  0.73428491  0.85419127  0.84440388    -0.85600
O1459       O  0.78968817  0.85319831  0.77811506    -0.80400
O1460       O  0.80104157  0.95936555  0.86305912    -0.82200
O1461       O  0.73895371  0.91789455  0.69332815    -0.84900
C1462       C  0.82478123  0.87286532  0.76805735     0.95800
C1463       C  0.76079208  0.86742938  0.87519075     1.03300
O1464       O  0.77397038  0.91601145  0.78176408    -1.13900
O1465       O  0.70330337  0.91725288  0.78901041    -0.76300
O1466       O  0.69307094  0.86111283  0.76487371    -0.79800
O1467       O  0.84225753  0.90885987  0.77146990    -0.80500
C1468       C  0.68156864  0.88183902  0.78370830     0.94700
O1469       O  0.75554775  0.87321005  0.70064789    -0.78500
O1470       O  0.77480090  0.98500899  0.81716632    -0.83700
C1471       C  0.83978422  0.00038635  0.74365331     0.97400
C1472       C  0.79114917  0.98381974  0.85539664     1.03300
O1473       O  0.84974753  0.98636024  0.77772041    -0.79300
C1474       C  0.75063815  0.89657323  0.67564131     1.01600
Fe1475     Fe  0.57933007  0.78132970  0.81305288     1.65800
Fe1476     Fe  0.50219200  0.77675253  0.76904127     1.73200
Fe1477     Fe  0.56812166  0.85660246  0.82590658     1.54400
O1478       O  0.58441640  0.84258809  0.89093030    -0.83000
O1479       O  0.51981417  0.82021364  0.72225848    -0.81400
O1480       O  0.56743397  0.78106949  0.88420579    -0.85600
O1481       O  0.63023754  0.83106225  0.82114152    -0.80400
O1482       O  0.51762181  0.84133254  0.85800327    -0.82200
O1483       O  0.52767127  0.75586737  0.72162037    -0.84900
C1484       C  0.64216429  0.86262931  0.80046823     0.95800
C1485       C  0.57261817  0.80956743  0.90901201     1.03300
O1486       O  0.54943421  0.80531827  0.80284169    -1.13900
O1487       O  0.48165970  0.72944455  0.81463892    -0.76300
O1488       O  0.53412431  0.72669028  0.80620811    -0.79800
O1489       O  0.62076542  0.87648300  0.79381534    -0.80500
C1490       C  0.49922461  0.71103310  0.81706404     0.94700
O1491       O  0.58922362  0.78338650  0.74080713    -0.78500
O1492       O  0.47343346  0.79880015  0.80897771    -0.83700
C1493       C  0.53135729  0.85509587  0.72855664     0.97400
C1494       C  0.48423226  0.82444171  0.84111896     1.03300
O1495       O  0.54983034  0.87363173  0.76530108    -0.79300
C1496       C  0.56274062  0.77022628  0.70996126     1.01600
Fe1497     Fe  0.52258870  0.08750811  0.63909082     1.65800
Fe1498     Fe  0.60943772  0.09620878  0.65146498     1.73200
Fe1499     Fe  0.59870700  0.16790481  0.60531901     1.54400
O1500       O  0.55883360  0.14372469  0.54894260    -0.83000
O1501       O  0.65204929  0.14774749  0.67358770    -0.81400
O1502       O  0.51652893  0.08269454  0.56634897    -0.85600
O1503       O  0.51219960  0.13179310  0.63641072    -0.80400
O1504       O  0.63342917  0.15741711  0.56571911    -0.82200
O1505       O  0.58491330  0.08859379  0.71962067    -0.84900
C1506       C  0.53057761  0.16653640  0.64675852     0.95800
C1507       C  0.53371924  0.10973189  0.53661350     1.03300
O1508       O  0.57743788  0.11712168  0.63168761    -1.13900
O1509       O  0.57317531  0.04084878  0.62964801    -0.76300
O1510       O  0.51688244  0.03478188  0.64139522    -0.79800
O1511       O  0.56639159  0.18471803  0.64560151    -0.80500
C1512       C  0.53746279  0.02089070  0.63093305     0.94700
O1513       O  0.53285301  0.09494468  0.71127526    -0.78500
O1514       O  0.63715497  0.10612735  0.58544299    -0.83700
C1515       C  0.66308070  0.18289850  0.67330928     0.97400
C1516       C  0.64661595  0.13534778  0.55971720     1.03300
O1517       O  0.64324946  0.19589571  0.65490777    -0.79300
C1518       C  0.55903675  0.09473453  0.73639872     1.01600
Fe1519     Fe  0.43750541  0.91521800  0.61219807     1.65800
Fe1520     Fe  0.51381636  0.90633754  0.59987522     1.73200
Fe1521     Fe  0.43364147  0.83749815  0.65371843     1.54400
O1522       O  0.41748995  0.86522513  0.70500346    -0.83000
O1523       O  0.50246389  0.85560100  0.57244240    -0.81400
O1524       O  0.44206890  0.92659980  0.68352116    -0.85600
O1525       O  0.38352590  0.87125201  0.62536887    -0.80400
O1526       O  0.47802194  0.85013382  0.69721221    -0.82200
O1527       O  0.49676226  0.91757404  0.53334429    -0.84900
C1528       C  0.36726427  0.83744418  0.61077734     0.95800
C1529       C  0.43020846  0.90055299  0.71498387     1.03300
O1530       O  0.46235349  0.88594733  0.62227061    -1.13900
O1531       O  0.53222583  0.95990591  0.62790051    -0.76300
O1532       O  0.48574380  0.96648918  0.59908720    -0.79800
O1533       O  0.38499127  0.81925340  0.61091415    -0.80500
C1534       C  0.51783817  0.98036245  0.61880247     0.94700
O1535       O  0.43508039  0.90078907  0.54152874    -0.78500
O1536       O  0.53267572  0.89321709  0.66280329    -0.83700
C1537       C  0.48177220  0.82066220  0.58224942     0.97400
C1538       C  0.51393790  0.86929270  0.69551673     1.03300
O1539       O  0.45234415  0.80789694  0.60897800    -0.79300
C1540       C  0.46333226  0.90566527  0.51614336     1.01600
Fe1541     Fe  0.88378209  0.13731180  0.97268432     1.65800
Fe1542     Fe  0.88845401  0.06396211  0.93148795     1.73200
Fe1543     Fe  0.80756760  0.05190194  0.98436608     1.54400
O1544       O  0.82541565  0.08137002  0.55253377    -0.83000
O1545       O  0.84429603  0.03184753  0.88768536    -0.81400
O1546       O  0.88687602  0.12649710  0.54391645    -0.85600
O1547       O  0.83542340  0.14008189  0.98582717    -0.80400
O1548       O  0.82167299  0.01431591  0.51517957    -0.82200
O1549       O  0.90469793  0.10780257  0.88032784    -0.84900
C1550       C  0.80344611  0.12191951  0.96586508     0.95800
C1551       C  0.85885022  0.10308613  0.56951463     1.03300
O1552       O  0.85917518  0.08326553  0.96239451    -1.13900
O1553       O  0.93706919  0.09486135  0.97456069    -0.76300
O1554       O  0.93804040  0.14803274  0.95986302    -0.79800
O1555       O  0.78903568  0.08706871  0.95680522    -0.80500
C1556       C  0.95470596  0.13083370  0.97414263     0.94700
O1557       O  0.87955538  0.14423074  0.90124186    -0.78500
O1558       O  0.86988120  0.01583260  0.97622383    -0.83700
C1559       C  0.80837308  0.01532450  0.88861728     0.97400
C1560       C  0.84145100  0.99952875  0.50316741     1.03300
O1561       O  0.78929343  0.02055560  0.92085595    -0.79300
C1562       C  0.89197062  0.13031871  0.87006005     1.01600
Fe1563     Fe  0.80042240  0.22453424  0.94480055     1.65800
Fe1564     Fe  0.71332390  0.14759793  0.93183339     1.73200
Fe1565     Fe  0.72546134  0.23033394  0.97854277     1.54400
O1566       O  0.76726435  0.24518069  0.53400234    -0.83000
O1567       O  0.67202434  0.15788376  0.90779894    -0.81400
O1568       O  0.80656471  0.22271169  0.51665915    -0.85600
O1569       O  0.81158480  0.27948222  0.95020749    -0.80400
O1570       O  0.69181658  0.18552751  0.51941164    -0.82200
O1571       O  0.73943688  0.16417992  0.86434571    -0.84900
C1572       C  0.79382336  0.29598785  0.93757389     0.95800
C1573       C  0.79068205  0.23407537  0.54644461     1.03300
O1574       O  0.74569181  0.20012530  0.95197926    -1.13900
O1575       O  0.74858143  0.12804335  0.95622827    -0.76300
O1576       O  0.80484674  0.17677684  0.93968719    -0.79800
O1577       O  0.75804811  0.27854720  0.93713434    -0.80500
C1578       C  0.78414967  0.14296697  0.95301906     0.94700
O1579       O  0.79043614  0.22330160  0.87284502    -0.78500
O1580       O  0.68404286  0.12993834  0.99687018    -0.83700
C1581       C  0.66109063  0.18208052  0.90965605     0.97400
C1582       C  0.67627386  0.14983429  0.52341421     1.03300
O1583       O  0.68064859  0.21425346  0.92977512    -0.79300
C1584       C  0.76475544  0.19652317  0.84760407     1.01600
loop_ 
_geom_bond_atom_site_label_1 
_geom_bond_atom_site_label_2 
_geom_bond_distance 
_geom_bond_site_symmetry_2 
_ccdc_geom_bond_type 
Fe1          O17   2.052       .  S
Fe1           O7   2.057       .  S
Fe1          O14   2.063       .  S
Fe1           O6   2.046       .  S
Fe1          O12   1.925       .  S
Fe2           O5   2.033       .  S
Fe2           O9   2.116       .  S
Fe2          O13   2.077       .  S
Fe2          O18   2.104       .  S
Fe2          O12   1.934       .  S
Fe3          O21   2.129       .  S
Fe3           O8   2.034       .  S
Fe3          O15   2.114       .  S
Fe3           O4   2.116       .  S
Fe3          O12   1.931       .  S
O4           C11   1.286       .  A
O5           C19   1.266       .  A
O6           C11   1.271       .  A
O7           C10   1.264       .  A
O8           C20   1.267       .  A
O9           C22   1.284       .  A
C10          O15   1.271       .  A
C10         C547   1.486   1_455  S
C11         C582   1.462       .  S
O13          C16   1.264       .  A
O14          C16   1.264       .  A
C16          C32   1.470       .  S
O17          C22   1.275       .  A
O18          C20   1.277       .  A
C19          O21   1.281       .  A
C19         C198   1.481       .  S
C20         C108   1.454       .  S
C22         C588   1.469       .  S
Fe23         O39   2.050       .  S
Fe23         O29   2.048       .  S
Fe23         O36   2.056       .  S
Fe23         O28   2.048       .  S
Fe23         O34   1.940       .  S
Fe24         O27   2.000       .  S
Fe24         O31   2.119       .  S
Fe24         O35   2.089       .  S
Fe24         O40   2.111       .  S
Fe24         O34   1.939       .  S
Fe25         O43   2.098       .  S
Fe25         O30   2.038       .  S
Fe25         O37   2.079       .  S
Fe25         O26   2.110       .  S
Fe25         O34   1.952       .  S
O26          C33   1.285       .  A
O27          C41   1.265       .  A
O28          C33   1.278       .  A
O29          C32   1.259       .  A
O30          C42   1.269       .  A
O31          C44   1.288       .  A
C32          O37   1.262       .  A
C33         C610   1.460       .  S
O35          C38   1.261       .  A
O36          C38   1.261       .  A
C38         C657   1.474       .  S
O39          C44   1.273       .  A
O40          C42   1.275       .  A
C41          O43   1.273       .  A
C41          C86   1.454       .  S
C42         C484   1.484       .  S
C44         C604   1.469       .  S
Fe45         O61   2.051       .  S
Fe45         O51   2.059       .  S
Fe45         O58   2.054       .  S
Fe45         O50   2.057       .  S
Fe45         O56   1.920       .  S
Fe46         O49   2.030       .  S
Fe46         O53   2.114       .  S
Fe46         O57   2.113       .  S
Fe46         O62   2.132       .  S
Fe46         O56   1.926       .  S
Fe47         O65   2.104       .  S
Fe47         O52   2.035       .  S
Fe47         O59   2.081       .  S
Fe47         O48   2.110       .  S
Fe47         O56   1.931       .  S
O48          C55   1.282       .  A
O49          C63   1.265       .  A
O50          C55   1.276       .  A
O51          C54   1.264       .  A
O52          C64   1.266       .  A
O53          C66   1.286       .  A
C54          O59   1.266       .  A
C54          C82   1.469       .  S
C55         C456   1.467       .  S
O57          C60   1.271       .  A
O58          C60   1.263       .  A
C60         C437   1.482       .  S
O61          C66   1.273       .  A
O62          C64   1.281       .  A
C63          O65   1.277       .  A
C63         C130   1.450       .  S
C64         C220   1.480       .  S
C66        C1242   1.462   1_554  S
Fe67         O83   2.049       .  S
Fe67         O73   2.059       .  S
Fe67         O80   2.049       .  S
Fe67         O72   2.048       .  S
Fe67         O78   1.941       .  S
Fe68         O71   2.039       .  S
Fe68         O75   2.110       .  S
Fe68         O79   2.075       .  S
Fe68         O84   2.099       .  S
Fe68         O78   1.950       .  S
Fe69         O87   2.112       .  S
Fe69         O74   1.998       .  S
Fe69         O81   2.091       .  S
Fe69         O70   2.122       .  S
Fe69         O78   1.938       .  S
O70          C77   1.288       .  A
O71          C85   1.268       .  A
O72          C77   1.273       .  A
O73          C76   1.261       .  A
O74          C86   1.265       .  A
O75          C88   1.286       .  A
C76          O81   1.261       .  A
C76         C503   1.475       .  S
C77         C472   1.470       .  S
O79          C82   1.260       .  A
O80          C82   1.259       .  A
O83          C88   1.278       .  A
O84          C86   1.274       .  A
C85          O87   1.275       .  A
C85         C616   1.486       .  S
C88        C1270   1.460   1_554  S
Fe89         O95   2.067       .  S
Fe89        O102   2.063       .  S
Fe89         O94   2.054       .  S
Fe89        O897   2.050       .  S
Fe89        O100   1.922       .  S
Fe90        O101   2.075       .  S
Fe90        O106   2.113       .  S
Fe90        O885   2.029       .  S
Fe90        O889   2.116       .  S
Fe90        O100   1.936       .  S
Fe91        O109   2.119       .  S
Fe91         O96   2.028       .  S
Fe91        O103   2.105       .  S
Fe91         O92   2.105       .  S
Fe91        O100   1.926       .  S
O92          C99   1.283       .  A
O93        Fe882   2.034   1_554  S
O93         C107   1.267       .  A
O94          C99   1.271       .  A
O95          C98   1.269       .  A
O96         C108   1.263       .  A
O97        Fe882   2.115   1_554  S
O97         C110   1.283       .  A
C98         O103   1.270       .  A
C98         C239   1.484       .  S
C99         C186   1.464       .  S
O101        C104   1.265       .  A
O102        C104   1.265       .  A
C104        C126   1.466       .  S
O105       Fe881   2.052   1_554  S
O105        C110   1.275       .  A
O106        C108   1.278       .  A
C107        O901   1.279   1_554  A
C107        C594   1.477       .  S
O109        C899   1.279       .  A
C110        C192   1.469       .  S
Fe111       O127   2.053       .  S
Fe111       O117   2.067       .  S
Fe111       O124   2.062       .  S
Fe111       O908   2.060       .  S
Fe111       O122   1.919       .  S
Fe112       O115   2.030       .  S
Fe112       O119   2.115       .  S
Fe112       O123   2.078       .  S
Fe112       O128   2.112       .  S
Fe112       O122   1.938       .  S
Fe113       O131   2.115       .  S
Fe113       O125   2.107       .  S
Fe113       O910   2.027       .  S
Fe113       O906   2.100       .  S
Fe113       O122   1.928       .  S
O114       Fe905   2.103   1_554  S
O114        C121   1.282       .  A
O115        C129   1.266       .  A
O116       Fe903   2.053   1_554  S
O116        C121   1.270       .  A
O117        C120   1.270       .  A
O118       Fe905   2.031   1_554  S
O118        C130   1.264       .  A
O119        C132   1.283       .  A
C120        O125   1.270       .  A
C120        C151   1.488       .  S
C121        C208   1.462       .  S
O123        C126   1.266       .  A
O124        C126   1.265       .  A
O127        C132   1.275       .  A
O128        C922   1.277       .  A
C129        O131   1.278       .  A
C129        C462   1.470       .  S
C130        O920   1.277   1_554  A
C132        C214   1.470       .  S
Fe133       O149   2.050       .  S
Fe133       O139   2.057       .  S
Fe133       O146   2.041       .  S
Fe133       O138   2.056       .  S
Fe133       O144   1.932       .  S
Fe134       O137   2.132       .  S
Fe134       O141   2.109       .  S
Fe134       O145   2.132       .  S
Fe134       O150   2.019       .  S
Fe134       O144   1.933       .  S
Fe135       O153   2.022       .  S
Fe135       O140   2.096       .  S
Fe135       O147   2.127       .  S
Fe135       O136   2.072       .  S
Fe135       O144   1.930       .  S
O136        C143   1.259       .  A
O137        C151   1.282       .  A
O138        C143   1.259       .  A
O139        C142   1.281       .  A
O140        C152   1.276       .  A
O141        C154   1.265       .  A
C142        O147   1.290       .  A
C142       C1507   1.473       .  S
C143        C165   1.469   1_545  S
O145        C148   1.293       .  A
O146        C148   1.275       .  A
C148        C726   1.463       .  S
O149        C154   1.257       .  A
O150        C152   1.265       .  A
C151        O153   1.265       .  A
C152        C218   1.449       .  S
C154        C789   1.480       .  S
Fe155       O171   2.057       .  S
Fe155       O161   2.055       .  S
Fe155       O168   2.048       .  S
Fe155       O160   2.051       .  S
Fe155       O166   1.938       .  S
Fe156       O159   2.104       .  S
Fe156       O163   2.091       .  S
Fe156       O167   2.121       .  S
Fe156       O172   1.999       .  S
Fe156       O166   1.934       .  S
Fe157       O175   2.036       .  S
Fe157       O162   2.101       .  S
Fe157       O169   2.110       .  S
Fe157       O158   2.072       .  S
Fe157       O166   1.949       .  S
O158        C165   1.260       .  A
O159        C173   1.274       .  A
O160        C165   1.259       .  A
O161        C164   1.280       .  A
O162        C174   1.274       .  A
O163        C176   1.260       .  A
C164        O169   1.286       .  A
C164        C737   1.464       .  S
O167        C170   1.289       .  A
O168        C170   1.274       .  A
C170       C1540   1.468       .  S
O171        C176   1.260       .  A
O172        C174   1.266       .  A
C173        O175   1.267       .  A
C173        C280   1.480       .  S
C174        C262   1.458       .  S
C176        C702   1.474       .  S
Fe177       O193   2.068       .  S
Fe177       O183   2.049       .  S
Fe177       O190   2.063       .  S
Fe177       O182   2.058       .  S
Fe177       O188   1.924       .  S
Fe178       O181   2.118       .  S
Fe178       O185   2.102       .  S
Fe178       O189   2.104       .  S
Fe178       O194   2.028       .  S
Fe178       O188   1.926       .  S
Fe179       O197   2.034       .  S
Fe179       O184   2.109       .  S
Fe179       O191   2.108       .  S
Fe179       O180   2.075       .  S
Fe179       O188   1.942       .  S
O180        C187   1.266       .  A
O181        C195   1.278       .  A
O182        C187   1.264       .  A
O183        C186   1.274       .  A
O184        C196   1.276       .  A
O185        C198   1.270       .  A
C186        O191   1.281       .  A
C187        C209   1.463       .  S
O189        C192   1.281       .  A
O190        C192   1.272       .  A
O193        C198   1.269       .  A
O194        C196   1.264       .  A
C195        O197   1.266       .  A
C195        C302   1.474   1_545  S
C196        C240   1.452   1_545  S
Fe199       O215   2.069       .  S
Fe199       O205   2.050       .  S
Fe199       O212   2.062       .  S
Fe199       O204   2.061       .  S
Fe199       O210   1.920       .  S
Fe200       O203   2.116       .  S
Fe200       O207   2.103       .  S
Fe200       O211   2.105       .  S
Fe200       O216   2.029       .  S
Fe200       O210   1.924       .  S
Fe201       O219   2.032       .  S
Fe201       O206   2.104       .  S
Fe201       O213   2.102       .  S
Fe201       O202   2.072       .  S
Fe201       O210   1.942       .  S
O202        C209   1.266       .  A
O203        C217   1.278       .  A
O204        C209   1.266       .  A
O205        C208   1.273       .  A
O206        C218   1.274       .  A
O207        C220   1.271       .  A
C208        O213   1.279       .  A
O211        C214   1.281       .  A
O212        C214   1.271       .  A
O215        C220   1.269       .  A
O216        C218   1.265       .  A
C217        O219   1.265       .  A
C217        C714   1.469       .  S
Fe221       O237   2.053       .  S
Fe221       O234   2.040       .  S
Fe221       O226   2.056       .  S
Fe221      O1019   2.053   1_554  S
Fe221       O232   1.929       .  S
Fe222       O225   2.123       .  S
Fe222       O229   2.113       .  S
Fe222       O233   2.122       .  S
Fe222       O238   2.025       .  S
Fe222       O232   1.928       .  S
Fe223       O228   2.099       .  S
Fe223       O224   2.072       .  S
Fe223      O1033   2.027   1_554  S
Fe223      O1027   2.121   1_554  S
Fe223       O232   1.931       .  S
O224        C231   1.260       .  A
O225       C1031   1.280   1_564  A
O226        C231   1.260       .  A
O227      Fe1013   2.055       .  S
O227        C230   1.279       .  A
O228        C240   1.276       .  A
O229        C242   1.267       .  A
C230        O235   1.287       .  A
C230        C308   1.469       .  S
C231        C253   1.467       .  S
O233        C236   1.290       .  A
O234        C236   1.274       .  A
O235      Fe1015   2.120       .  S
C236        C297   1.459       .  S
O237        C242   1.258       .  A
O238        C240   1.266       .  A
C239        O241   1.267   1_545  A
C239       O1017   1.281   1_545  A
O241      Fe1015   2.031       .  S
C242        C393   1.483   1_455  S
Fe243       O259   2.050       .  S
Fe243       O249   2.054       .  S
Fe243       O248   2.043       .  S
Fe243      O1048   2.050   1_554  S
Fe243       O254   1.943       .  S
Fe244       O247   2.112       .  S
Fe244       O251   2.089       .  S
Fe244      O1047   2.121   1_554  S
Fe244      O1052   1.998   1_554  S
Fe244       O254   1.940       .  S
Fe245       O263   2.037       .  S
Fe245       O250   2.096       .  S
Fe245       O257   2.102       .  S
Fe245       O246   2.070       .  S
Fe245       O254   1.959       .  S
O246        C253   1.260       .  A
O247        C261   1.275       .  A
O248        C253   1.257       .  A
O249        C252   1.279       .  A
O250       C1054   1.273   1_554  A
O251        C264   1.261       .  A
C252        O257   1.285       .  A
C252        C286   1.460       .  S
O255      Fe1036   2.122       .  S
O255        C258   1.289       .  A
O256      Fe1035   2.049       .  S
O256        C258   1.274       .  A
C258        C275   1.470       .  S
O259        C264   1.259       .  A
O260      Fe1036   1.997       .  S
O260        C262   1.265       .  A
C261        O263   1.266       .  A
C261        C736   1.485       .  S
C262       O1042   1.275       .  A
C264        C349   1.472       .  S
Fe265       O281   2.039       .  S
Fe265       O271   2.058       .  S
Fe265       O278   2.053       .  S
Fe265       O270   2.054       .  S
Fe265       O276   1.931       .  S
Fe266       O269   2.024       .  S
Fe266       O273   2.124       .  S
Fe266       O277   2.109       .  S
Fe266       O282   2.125       .  S
Fe266       O276   1.930       .  S
Fe267       O285   2.098       .  S
Fe267       O272   2.026       .  S
Fe267       O279   2.073       .  S
Fe267       O268   2.122       .  S
Fe267       O276   1.930       .  S
O268        C275   1.288       .  A
O269        C283   1.266       .  A
O270        C275   1.279       .  A
O271        C274   1.260       .  A
O272        C284   1.267       .  A
O273        C286   1.291       .  A
C274        O279   1.260       .  A
C274        C296   1.468       .  S
O277        C280   1.266       .  A
O278        C280   1.258       .  A
O281        C286   1.273       .  A
O282        C284   1.281       .  A
C283        O285   1.276       .  A
C283        C350   1.452       .  S
C284        C660   1.484       .  S
Fe287       O303   2.045       .  S
Fe287       O293   2.048       .  S
Fe287       O300   2.055       .  S
Fe287       O292   2.051       .  S
Fe287       O298   1.939       .  S
Fe288       O291   1.998       .  S
Fe288       O295   2.126       .  S
Fe288       O299   2.091       .  S
Fe288       O304   2.106       .  S
Fe288       O298   1.933       .  S
Fe289       O307   2.097       .  S
Fe289       O294   2.038       .  S
Fe289       O301   2.071       .  S
Fe289       O290   2.107       .  S
Fe289       O298   1.949       .  S
O290        C297   1.287       .  A
O291        C305   1.266       .  A
O292        C297   1.280       .  A
O293        C296   1.258       .  A
O294        C306   1.267   1_455  A
O295        C308   1.290       .  A
C296        O301   1.260       .  A
O299        C302   1.260       .  A
O300        C302   1.258       .  A
O303        C308   1.274       .  A
O304        C306   1.274   1_455  A
C305        O307   1.274       .  A
C305        C394   1.456   1_455  S
C306        C418   1.483       .  S
Fe309       O325   2.064       .  S
Fe309       O315   2.062       .  S
Fe309       O322   2.067       .  S
Fe309       O314   2.054       .  S
Fe309       O320   1.918       .  S
Fe310       O313   2.026       .  S
Fe310       O317   2.102       .  S
Fe310       O321   2.103       .  S
Fe310       O326   2.119       .  S
Fe310       O320   1.925       .  S
Fe311       O329   2.107       .  S
Fe311       O316   2.035       .  S
Fe311       O323   2.077       .  S
Fe311       O312   2.104       .  S
Fe311       O320   1.940       .  S
O312        C319   1.280       .  A
O313        C327   1.262       .  A
O314        C319   1.275       .  A
O315        C318   1.266       .  A
O316        C328   1.266       .  A
O317        C330   1.281       .  A
C318        O323   1.267       .  A
C318        C346   1.466   1_655  S
C319        C632   1.465       .  S
O321        C324   1.271       .  A
O322        C324   1.270       .  A
C324        C569   1.482       .  S
O325        C330   1.271       .  A
O326        C328   1.279       .  A
C327        O329   1.275       .  A
C327        C372   1.448       .  S
C328        C440   1.472       .  S
C330       C1418   1.469   1_554  S
Fe331       O347   2.051       .  S
Fe331       O337   2.067       .  S
Fe331       O344   2.061       .  S
Fe331       O336   2.063       .  S
Fe331       O342   1.922       .  S
Fe332       O335   2.035       .  S
Fe332       O339   2.107       .  S
Fe332       O343   2.077       .  S
Fe332       O348   2.107       .  S
Fe332       O342   1.941       .  S
Fe333       O351   2.117       .  S
Fe333       O338   2.030       .  S
Fe333       O345   2.103       .  S
Fe333       O334   2.103       .  S
Fe333       O342   1.927       .  S
O334        C341   1.281       .  A
O335        C349   1.266       .  A
O336        C341   1.272       .  A
O337        C340   1.269       .  A
O338        C350   1.265       .  A
O339        C352   1.281       .  A
C340        O345   1.271       .  A
C340        C613   1.482       .  S
C341        C648   1.468       .  S
O343        C346   1.266       .  A
O344        C346   1.265       .  A
O347        C352   1.274       .  A
O348        C350   1.276       .  A
C349        O351   1.278       .  A
C352       C1446   1.465   1_554  S
Fe353       O369   2.057       .  S
Fe353       O359   2.053       .  S
Fe353       O366   2.059       .  S
Fe353      O1150   2.047       .  S
Fe353       O364   1.926       .  S
Fe354       O357   2.031       .  S
Fe354       O361   2.120       .  S
Fe354       O365   2.081       .  S
Fe354       O370   2.101       .  S
Fe354       O364   1.928       .  S
Fe355       O373   2.132       .  S
Fe355       O367   2.112       .  S
Fe355      O1152   2.025       .  S
Fe355      O1148   2.116       .  S
Fe355       O364   1.930       .  S
O356      Fe1147   2.125   1_554  S
O356        C363   1.291       .  A
O357        C371   1.267       .  A
O358      Fe1145   2.041   1_554  S
O358        C363   1.275       .  A
O359        C362   1.260       .  A
O360      Fe1147   2.025   1_554  S
O360        C372   1.267       .  A
O361        C374   1.286       .  A
C362        O367   1.269       .  A
C362        C459   1.481       .  S
C363        C428   1.460       .  S
O365        C368   1.263       .  A
O366        C368   1.262       .  A
C368        C390   1.471       .  S
O369        C374   1.278       .  A
O370       C1164   1.277       .  A
C371        O373   1.282       .  A
C371        C638   1.486       .  S
C372       O1162   1.275   1_554  A
C374        C434   1.471       .  S
Fe375       O381   2.056       .  S
Fe375       O388   2.048       .  S
Fe375       O380   2.049       .  S
Fe375      O1183   2.054       .  S
Fe375       O386   1.939       .  S
Fe376       O387   2.078       .  S
Fe376       O392   2.098       .  S
Fe376      O1171   2.039       .  S
Fe376      O1175   2.108       .  S
Fe376       O386   1.951       .  S
Fe377       O395   2.110       .  S
Fe377       O382   1.996       .  S
Fe377       O389   2.087       .  S
Fe377       O378   2.122       .  S
Fe377       O386   1.937       .  S
O378        C385   1.289       .  A
O379      Fe1168   2.038   1_554  S
O379        C393   1.267       .  A
O380        C385   1.274       .  A
O381        C384   1.259       .  A
O382        C394   1.265       .  A
O383      Fe1168   2.111   1_554  S
O383        C396   1.287       .  A
C384        O389   1.260       .  A
C384        C525   1.472       .  S
C385        C406   1.470       .  S
O387        C390   1.261       .  A
O388        C390   1.258       .  A
O391      Fe1167   2.054   1_554  S
O391        C396   1.281       .  A
O392        C394   1.274       .  A
C393       O1187   1.274   1_554  A
O395       C1185   1.275       .  A
C396        C412   1.462       .  S
Fe397       O413   2.055       .  S
Fe397       O403   2.058       .  S
Fe397       O410   2.048       .  S
Fe397       O402   2.057       .  S
Fe397       O408   1.925       .  S
Fe398       O401   2.126       .  S
Fe398       O405   2.111       .  S
Fe398       O409   2.117       .  S
Fe398       O414   2.023       .  S
Fe398       O408   1.929       .  S
Fe399       O417   2.029       .  S
Fe399       O404   2.099       .  S
Fe399       O411   2.116       .  S
Fe399       O400   2.076       .  S
Fe399       O408   1.933       .  S
O400        C407   1.262       .  A
O401        C415   1.281       .  A
O402        C407   1.261       .  A
O403        C406   1.278       .  A
O404        C416   1.276       .  A
O405        C418   1.269       .  A
C406        O411   1.285       .  A
C407        C429   1.467       .  S
O409        C412   1.288       .  A
O410        C412   1.274       .  A
O413        C418   1.261       .  A
O414        C416   1.265       .  A
C415        O417   1.267       .  A
C415        C670   1.481       .  S
C416        C526   1.449       .  S
Fe419       O435   2.057       .  S
Fe419       O425   2.051       .  S
Fe419       O432   2.048       .  S
Fe419       O424   2.049       .  S
Fe419       O430   1.938       .  S
Fe420       O423   2.109       .  S
Fe420       O427   2.088       .  S
Fe420       O431   2.126       .  S
Fe420       O436   1.996       .  S
Fe420       O430   1.935       .  S
Fe421       O439   2.033       .  S
Fe421       O426   2.099       .  S
Fe421       O433   2.110       .  S
Fe421       O422   2.069       .  S
Fe421       O430   1.950       .  S
O422        C429   1.259       .  A
O423        C437   1.274       .  A
O424        C429   1.258       .  A
O425        C428   1.279       .  A
O426        C438   1.274       .  A
O427        C440   1.260       .  A
C428        O433   1.287       .  A
O431        C434   1.290       .  A
O432        C434   1.274       .  A
O435        C440   1.259       .  A
O436        C438   1.265       .  A
C437        O439   1.267       .  A
C438        C460   1.455       .  S
Fe441       O457   2.056       .  S
Fe441       O447   2.049       .  S
Fe441       O454   2.045       .  S
Fe441       O446   2.051       .  S
Fe441       O452   1.935       .  S
Fe442       O445   2.104       .  S
Fe442       O449   2.085       .  S
Fe442       O453   2.122       .  S
Fe442       O458   1.994       .  S
Fe442       O452   1.934       .  S
Fe443       O461   2.037       .  S
Fe443       O448   2.099       .  S
Fe443       O455   2.113       .  S
Fe443       O444   2.076       .  S
Fe443       O452   1.947       .  S
O444        C451   1.260       .  A
O445        C459   1.273       .  A
O446        C451   1.259       .  A
O447        C450   1.280       .  A
O448        C460   1.274       .  A
O449        C462   1.259       .  A
C450        O455   1.288       .  A
C450        C858   1.460       .  S
C451        C473   1.471       .  S
O453        C456   1.290       .  A
O454        C456   1.275       .  A
O457        C462   1.259       .  A
O458        C460   1.265       .  A
C459        O461   1.267       .  A
Fe463       O479   2.053       .  S
Fe463       O469   2.058       .  S
Fe463       O476   2.050       .  S
Fe463       O468   2.058       .  S
Fe463       O474   1.922       .  S
Fe464       O467   2.129       .  S
Fe464       O471   2.115       .  S
Fe464       O475   2.112       .  S
Fe464       O480   2.031       .  S
Fe464       O474   1.927       .  S
Fe465       O483   2.036       .  S
Fe465       O470   2.106       .  S
Fe465       O477   2.113       .  S
Fe465       O466   2.084       .  S
Fe465       O474   1.930       .  S
O466        C473   1.266       .  A
O467        C481   1.281       .  A
O468        C473   1.263       .  A
O469        C472   1.277       .  A
O470        C482   1.278       .  A
O471        C484   1.272       .  A
C472        O477   1.283       .  A
O475        C478   1.285       .  A
O476        C478   1.273       .  A
C478        C880   1.461       .  S
O479        C484   1.262       .  A
O480        C482   1.265       .  A
C481        O483   1.267       .  A
C481        C698   1.482       .  S
C482        C504   1.452       .  S
Fe485       O501   2.063       .  S
Fe485       O491   2.055       .  S
Fe485       O490   2.060       .  S
Fe485      O1290   2.062   1_554  S
Fe485       O496   1.922       .  S
Fe486       O489   2.123       .  S
Fe486       O493   2.105       .  S
Fe486      O1289   2.103   1_554  S
Fe486      O1294   2.030   1_554  S
Fe486       O496   1.932       .  S
Fe487       O505   2.031       .  S
Fe487       O492   2.104       .  S
Fe487       O499   2.111       .  S
Fe487       O488   2.071       .  S
Fe487       O496   1.939       .  S
O488        C495   1.265       .  A
O489        C503   1.280       .  A
O490        C495   1.265       .  A
O491        C494   1.275       .  A
O492       C1296   1.276   1_554  A
O493        C506   1.271       .  A
C494        O499   1.281       .  A
C494        C704   1.469       .  S
C495        C517   1.462       .  S
O497      Fe1278   2.101       .  S
O497        C500   1.281       .  A
O498      Fe1277   2.054       .  S
O498        C500   1.270       .  A
C500        C693   1.463       .  S
O501        C506   1.269       .  A
O502      Fe1278   2.034       .  S
O502        C504   1.264       .  A
C503        O505   1.266       .  A
C504       O1284   1.277       .  A
C506        C745   1.484       .  S
Fe507       O523   2.059       .  S
Fe507       O520   2.057       .  S
Fe507       O512   2.058       .  S
Fe507      O1305   2.055   1_554  S
Fe507       O518   1.919       .  S
Fe508       O511   2.115       .  S
Fe508       O515   2.101       .  S
Fe508       O519   2.105       .  S
Fe508       O524   2.024       .  S
Fe508       O518   1.926       .  S
Fe509       O514   2.106       .  S
Fe509       O510   2.073       .  S
Fe509      O1319   2.028   1_554  S
Fe509      O1313   2.115   1_554  S
Fe509       O518   1.935       .  S
O510        C517   1.264       .  A
O511       C1317   1.278   1_554  A
O512        C517   1.263       .  A
O513      Fe1299   2.050       .  S
O513        C516   1.275       .  A
O514        C526   1.276       .  A
O515        C528   1.268       .  A
C516        O521   1.282       .  A
C516        C671   1.465       .  S
O519        C522   1.283       .  A
O520        C522   1.272       .  A
O521      Fe1301   2.111       .  S
C522        C682   1.465       .  S
O523        C528   1.267       .  A
O524        C526   1.264       .  A
C525        O527   1.267       .  A
C525       O1303   1.279       .  A
O527      Fe1301   2.035       .  S
C528        C768   1.479       .  S
Fe529       O545   2.042       .  S
Fe529       O535   2.059       .  S
Fe529       O542   2.052       .  S
Fe529       O534   2.039       .  S
Fe529       O540   1.948       .  S
Fe530       O533   2.112       .  S
Fe530       O537   2.088       .  S
Fe530       O541   2.116       .  S
Fe530       O546   2.002       .  S
Fe530       O540   1.950       .  S
Fe531       O549   2.034       .  S
Fe531       O536   2.102       .  S
Fe531       O543   2.104       .  S
Fe531       O532   2.076       .  S
Fe531       O540   1.962       .  S
O532        C539   1.261       .  A
O533        C547   1.274       .  A
O534        C539   1.257       .  A
O535        C538   1.279       .  A
O536        C548   1.275       .  A
O537        C550   1.261       .  A
C538        O543   1.285       .  A
C538        C770   1.464       .  S
C539        C561   1.470       .  S
O541        C544   1.287       .  A
O542        C544   1.272       .  A
C544        C759   1.471       .  S
O545        C550   1.258       .  A
O546        C548   1.265       .  A
C547        O549   1.266       .  A
C548        C592   1.459   1_655  S
C550        C679   1.469       .  S
Fe551       O567   2.052       .  S
Fe551       O557   2.055       .  S
Fe551       O564   2.043       .  S
Fe551       O556   2.059       .  S
Fe551       O562   1.928       .  S
Fe552       O555   2.128       .  S
Fe552       O559   2.116       .  S
Fe552       O563   2.121       .  S
Fe552       O568   2.034       .  S
Fe552       O562   1.929       .  S
Fe553       O571   2.030       .  S
Fe553       O558   2.101       .  S
Fe553       O565   2.118       .  S
Fe553       O554   2.077       .  S
Fe553       O562   1.930       .  S
O554        C561   1.262       .  A
O555        C569   1.281       .  A
O556        C561   1.262       .  A
O557        C560   1.277       .  A
O558        C570   1.276       .  A
O559        C572   1.269       .  A
C560        O565   1.285       .  A
C560        C781   1.469       .  S
O563        C566   1.289       .  A
O564        C566   1.273       .  A
C566        C792   1.461       .  S
O567        C572   1.260       .  A
O568        C570   1.267       .  A
C569        O571   1.267       .  A
C570        C636   1.455       .  S
C572        C723   1.484       .  S
Fe573       O589   2.060       .  S
Fe573       O586   2.048       .  S
Fe573       O578   2.050       .  S
Fe573      O1371   2.048   1_554  S
Fe573       O584   1.939       .  S
Fe574       O577   2.111       .  S
Fe574       O581   2.094       .  S
Fe574       O585   2.122       .  S
Fe574       O590   2.001       .  S
Fe574       O584   1.932       .  S
Fe575       O580   2.104       .  S
Fe575       O576   2.075       .  S
Fe575      O1385   2.038   1_554  S
Fe575      O1379   2.115   1_554  S
Fe575       O584   1.948       .  S
O576        C583   1.261       .  A
O577       C1383   1.276   1_454  A
O578        C583   1.259       .  A
O579      Fe1365   2.048       .  S
O579        C582   1.278       .  A
O580        C592   1.275       .  A
O581        C594   1.262       .  A
C582        O587   1.288       .  A
C583        C605   1.468       .  S
O585        C588   1.288       .  A
O586        C588   1.273       .  A
O587      Fe1367   2.116       .  S
O589        C594   1.261       .  A
O590        C592   1.266       .  A
C591        O593   1.268   1_655  A
C591       O1369   1.274   1_655  A
C591        C764   1.481       .  S
O593      Fe1367   2.035       .  S
Fe595       O611   2.057       .  S
Fe595       O601   2.052       .  S
Fe595       O600   2.059       .  S
Fe595      O1400   2.048   1_554  S
Fe595       O606   1.927       .  S
Fe596       O599   2.128       .  S
Fe596       O603   2.115       .  S
Fe596      O1399   2.112   1_554  S
Fe596      O1404   2.035   1_554  S
Fe596       O606   1.930       .  S
Fe597       O615   2.033       .  S
Fe597       O602   2.105       .  S
Fe597       O609   2.117       .  S
Fe597       O598   2.078       .  S
Fe597       O606   1.935       .  S
O598        C605   1.264       .  A
O599        C613   1.281       .  A
O600        C605   1.263       .  A
O601        C604   1.276       .  A
O602       C1406   1.277   1_554  A
O603        C616   1.272       .  A
C604        O609   1.284       .  A
O607      Fe1388   2.111       .  S
O607        C610   1.284       .  A
O608      Fe1387   2.048       .  S
O608        C610   1.272       .  A
O611        C616   1.263       .  A
O612      Fe1388   2.034       .  S
O612        C614   1.266       .  A
C613        O615   1.267       .  A
C614       O1394   1.278       .  A
C614        C658   1.455       .  S
Fe617       O633   2.067       .  S
Fe617       O623   2.050       .  S
Fe617       O630   2.057       .  S
Fe617       O622   2.062       .  S
Fe617       O628   1.922       .  S
Fe618       O621   2.119       .  S
Fe618       O625   2.108       .  S
Fe618       O629   2.100       .  S
Fe618       O634   2.031       .  S
Fe618       O628   1.928       .  S
Fe619       O637   2.035       .  S
Fe619       O624   2.115       .  S
Fe619       O631   2.112       .  S
Fe619       O620   2.079       .  S
Fe619       O628   1.938       .  S
O620        C627   1.267       .  A
O621        C635   1.279       .  A
O622        C627   1.265       .  A
O623        C626   1.274       .  A
O624        C636   1.278       .  A
O625        C638   1.272       .  A
C626        O631   1.282       .  A
C626       C1122   1.466       .  S
C627        C649   1.468   1_655  S
O629        C632   1.280       .  A
O630        C632   1.270       .  A
O633        C638   1.270       .  A
O634        C636   1.263       .  A
C635        O637   1.266       .  A
C635        C780   1.474       .  S
Fe639       O655   2.065       .  S
Fe639       O645   2.051       .  S
Fe639       O652   2.054       .  S
Fe639       O644   2.062       .  S
Fe639       O650   1.924       .  S
Fe640       O643   2.120       .  S
Fe640       O647   2.105       .  S
Fe640       O651   2.106       .  S
Fe640       O656   2.032       .  S
Fe640       O650   1.932       .  S
Fe641       O659   2.032       .  S
Fe641       O646   2.110       .  S
Fe641       O653   2.117       .  S
Fe641       O642   2.079       .  S
Fe641       O650   1.935       .  S
O642        C649   1.265       .  A
O643        C657   1.279       .  A
O644        C649   1.264       .  A
O645        C648   1.275       .  A
O646        C658   1.278       .  A
O647        C660   1.270       .  A
C648        O653   1.283       .  A
O651        C654   1.283       .  A
O652        C654   1.271       .  A
C654       C1144   1.465       .  S
O655        C660   1.268       .  A
O656        C658   1.264       .  A
C657        O659   1.266       .  A
Fe661       O677   2.052       .  S
Fe661       O667   2.066       .  S
Fe661       O674   2.061       .  S
Fe661       O666   2.059       .  S
Fe661       O672   1.920       .  S
Fe662       O665   2.034       .  S
Fe662       O669   2.107       .  S
Fe662       O673   2.075       .  S
Fe662       O678   2.107       .  S
Fe662       O672   1.938       .  S
Fe663       O681   2.116       .  S
Fe663       O668   2.030       .  S
Fe663       O675   2.100       .  S
Fe663       O664   2.099       .  S
Fe663       O672   1.929       .  S
O664        C671   1.280       .  A
O665        C679   1.266   1_565  A
O666        C671   1.271       .  A
O667        C670   1.270       .  A
O668        C680   1.264       .  A
O669        C682   1.280       .  A
C670        O675   1.270       .  A
O673        C676   1.266       .  A
O674        C676   1.265       .  A
C676        C692   1.464       .  S
O677        C682   1.274       .  A
O678        C680   1.276       .  A
C679        O681   1.278   1_545  A
C680        C767   1.450   1_565  S
Fe683       O699   2.061       .  S
Fe683       O689   2.061       .  S
Fe683       O696   2.067       .  S
Fe683       O688   2.049       .  S
Fe683       O694   1.922       .  S
Fe684       O687   2.029       .  S
Fe684       O691   2.105       .  S
Fe684       O695   2.105       .  S
Fe684       O700   2.121       .  S
Fe684       O694   1.924       .  S
Fe685       O703   2.107       .  S
Fe685       O690   2.033       .  S
Fe685       O697   2.075       .  S
Fe685       O686   2.106       .  S
Fe685       O694   1.940       .  S
O686        C693   1.281       .  A
O687        C701   1.264       .  A
O688        C693   1.274       .  A
O689        C692   1.265       .  A
O690        C702   1.266       .  A
O691        C704   1.282       .  A
C692        O697   1.266       .  A
O695        C698   1.271       .  A
O696        C698   1.268       .  A
O699        C704   1.272       .  A
O700        C702   1.279       .  A
C701        O703   1.276       .  A
C701        C746   1.451       .  S
Fe705       O721   2.054       .  S
Fe705       O711   2.052       .  S
Fe705       O718   2.047       .  S
Fe705       O710   2.048       .  S
Fe705       O716   1.943       .  S
Fe706       O709   2.035       .  S
Fe706       O713   2.107       .  S
Fe706       O717   2.075       .  S
Fe706       O722   2.100       .  S
Fe706       O716   1.956       .  S
Fe707       O725   2.108       .  S
Fe707       O712   1.996       .  S
Fe707       O719   2.083       .  S
Fe707       O708   2.119       .  S
Fe707       O716   1.942       .  S
O708        C715   1.288       .  A
O709        C723   1.266       .  A
O710        C715   1.273       .  A
O711        C714   1.260       .  A
O712        C724   1.265       .  A
O713        C726   1.286       .  A
C714        O719   1.259       .  A
C715        C934   1.469   1_554  S
O717        C720   1.261       .  A
O718        C720   1.258       .  A
C720        C742   1.471   1_545  S
O721        C726   1.279       .  A
O722        C724   1.274       .  A
C723        O725   1.274       .  A
C724        C790   1.457       .  S
Fe727       O743   2.054       .  S
Fe727       O733   2.056       .  S
Fe727       O740   2.058       .  S
Fe727       O732   2.044       .  S
Fe727       O738   1.929       .  S
Fe728       O731   2.029       .  S
Fe728       O735   2.122       .  S
Fe728       O739   2.078       .  S
Fe728       O744   2.101       .  S
Fe728       O738   1.929       .  S
Fe729       O747   2.125       .  S
Fe729       O734   2.023       .  S
Fe729       O741   2.114       .  S
Fe729       O730   2.124       .  S
Fe729       O738   1.930       .  S
O730        C737   1.290       .  A
O731        C745   1.267       .  A
O732        C737   1.274       .  A
O733        C736   1.259       .  A
O734        C746   1.266       .  A
O735        C748   1.287       .  A
C736        O741   1.267       .  A
O739        C742   1.262       .  A
O740        C742   1.261       .  A
O743        C748   1.279       .  A
O744        C746   1.277       .  A
C745        O747   1.281       .  A
C748        C962   1.469   1_554  S
Fe749       O765   2.046       .  S
Fe749       O755   2.056       .  S
Fe749       O762   2.052       .  S
Fe749      O1546   2.055       .  S
Fe749       O760   1.928       .  S
Fe750       O753   2.023       .  S
Fe750       O757   2.124       .  S
Fe750       O761   2.110       .  S
Fe750       O766   2.130       .  S
Fe750       O760   1.931       .  S
Fe751       O769   2.099       .  S
Fe751       O763   2.075       .  S
Fe751      O1548   2.029       .  S
Fe751      O1544   2.117       .  S
Fe751       O760   1.933       .  S
O752      Fe1543   2.124   1_554  S
O752        C759   1.288       .  A
O753        C767   1.265       .  A
O754      Fe1541   2.053   1_554  S
O754        C759   1.279       .  A
O755        C758   1.261       .  A
O756      Fe1543   2.021   1_554  S
O756        C768   1.266   1_545  A
O757        C770   1.290       .  A
C758        O763   1.261       .  A
C758        C786   1.466       .  S
O761        C764   1.268       .  A
O762        C764   1.260       .  A
O765        C770   1.274       .  A
O766       C1560   1.282   1_545  A
C767        O769   1.276       .  A
C768       O1558   1.280   1_564  A
Fe771       O787   2.049       .  S
Fe771       O777   2.059       .  S
Fe771       O784   2.049       .  S
Fe771      O1568   2.052       .  S
Fe771       O782   1.938       .  S
Fe772       O775   2.035       .  S
Fe772       O779   2.112       .  S
Fe772       O783   2.072       .  S
Fe772       O788   2.101       .  S
Fe772       O782   1.950       .  S
Fe773       O791   2.105       .  S
Fe773       O785   2.088       .  S
Fe773      O1570   1.998       .  S
Fe773      O1566   2.124       .  S
Fe773       O782   1.931       .  S
O774      Fe1565   2.121   1_554  S
O774        C781   1.289       .  A
O775        C789   1.267       .  A
O776      Fe1563   2.048   1_554  S
O776        C781   1.274       .  A
O777        C780   1.260       .  A
O778      Fe1565   1.999   1_554  S
O778        C790   1.266       .  A
O779        C792   1.287       .  A
C780        O785   1.260       .  A
O783        C786   1.260       .  A
O784        C786   1.258       .  A
O787        C792   1.279       .  A
O788       C1582   1.274       .  A
C789        O791   1.275       .  A
C790       O1580   1.274   1_554  A
Fe793       O809   2.052       .  S
Fe793       O799   2.060       .  S
Fe793       O806   2.060       .  S
Fe793       O798   2.050       .  S
Fe793       O804   1.926       .  S
Fe794       O797   2.034       .  S
Fe794       O801   2.117       .  S
Fe794       O805   2.079       .  S
Fe794       O810   2.104       .  S
Fe794       O804   1.935       .  S
Fe795       O813   2.129       .  S
Fe795       O800   2.031       .  S
Fe795       O807   2.113       .  S
Fe795       O796   2.112       .  S
Fe795       O804   1.931       .  S
O796        C803   1.285       .  A
O797        C811   1.267       .  A
O798        C803   1.272       .  A
O799        C802   1.265       .  A
O800        C812   1.266       .  A
O801        C814   1.284       .  A
C802        O807   1.271       .  A
C802       C1339   1.487   1_455  S
C803       C1374   1.462       .  S
O805        C808   1.264       .  A
O806        C808   1.263       .  A
C808        C824   1.469       .  S
O809        C814   1.276       .  A
O810        C812   1.277       .  A
C811        O813   1.280       .  A
C811        C990   1.482       .  S
C812        C900   1.452       .  S
C814       C1380   1.468       .  S
Fe815       O831   2.047       .  S
Fe815       O821   2.049       .  S
Fe815       O828   2.060       .  S
Fe815       O820   2.047       .  S
Fe815       O826   1.940       .  S
Fe816       O819   1.995       .  S
Fe816       O823   2.123       .  S
Fe816       O827   2.087       .  S
Fe816       O832   2.112       .  S
Fe816       O826   1.936       .  S
Fe817       O835   2.100       .  S
Fe817       O822   2.040       .  S
Fe817       O829   2.077       .  S
Fe817       O818   2.113       .  S
Fe817       O826   1.949       .  S
O818        C825   1.287       .  A
O819        C833   1.264       .  A
O820        C825   1.278       .  A
O821        C824   1.258       .  A
O822        C834   1.269       .  A
O823        C836   1.289       .  A
C824        O829   1.261       .  A
C825       C1402   1.460       .  S
O827        C830   1.260       .  A
O828        C830   1.261       .  A
C830       C1449   1.474       .  S
O831        C836   1.273       .  A
O832        C834   1.275       .  A
C833        O835   1.274       .  A
C833        C878   1.455       .  S
C834       C1276   1.485       .  S
C836       C1396   1.469       .  S
Fe837       O853   2.043       .  S
Fe837       O843   2.058       .  S
Fe837       O850   2.053       .  S
Fe837       O842   2.056       .  S
Fe837       O848   1.930       .  S
Fe838       O841   2.030       .  S
Fe838       O845   2.119       .  S
Fe838       O849   2.111       .  S
Fe838       O854   2.123       .  S
Fe838       O848   1.933       .  S
Fe839       O857   2.097       .  S
Fe839       O844   2.025       .  S
Fe839       O851   2.068       .  S
Fe839       O840   2.117       .  S
Fe839       O848   1.934       .  S
O840        C847   1.285       .  A
O841        C855   1.267       .  A
O842        C847   1.278       .  A
O843        C846   1.261       .  A
O844        C856   1.266       .  A
O845        C858   1.289       .  A
C846        O851   1.260       .  A
C846        C874   1.465       .  S
C847       C1248   1.469       .  S
O849        C852   1.268       .  A
O850        C852   1.260       .  A
C852       C1229   1.482       .  S
O853        C858   1.273       .  A
O854        C856   1.280       .  A
C855        O857   1.276       .  A
C855        C922   1.452       .  S
C856       C1012   1.480       .  S
Fe859       O875   2.052       .  S
Fe859       O865   2.053       .  S
Fe859       O872   2.044       .  S
Fe859       O864   2.044       .  S
Fe859       O870   1.939       .  S
Fe860       O863   2.035       .  S
Fe860       O867   2.110       .  S
Fe860       O871   2.071       .  S
Fe860       O876   2.099       .  S
Fe860       O870   1.948       .  S
Fe861       O879   2.105       .  S
Fe861       O866   1.999       .  S
Fe861       O873   2.087       .  S
Fe861       O862   2.118       .  S
Fe861       O870   1.938       .  S
O862        C869   1.288       .  A
O863        C877   1.268       .  A
O864        C869   1.273       .  A
O865        C868   1.259       .  A
O866        C878   1.265       .  A
O867        C880   1.286       .  A
C868        O873   1.260       .  A
C868       C1295   1.471       .  S
C869       C1264   1.465       .  S
O871        C874   1.260       .  A
O872        C874   1.257       .  A
O875        C880   1.279       .  A
O876        C878   1.274       .  A
C877        O879   1.274       .  A
C877       C1408   1.481       .  S
Fe881       O887   2.064       .  S
Fe881       O894   2.060       .  S
Fe881       O886   2.057       .  S
Fe881       O892   1.925       .  S
Fe882       O893   2.078       .  S
Fe882       O898   2.109       .  S
Fe882       O892   1.938       .  S
Fe883       O901   2.122       .  S
Fe883       O888   2.028       .  S
Fe883       O895   2.103       .  S
Fe883       O884   2.106       .  S
Fe883       O892   1.932       .  S
O884        C891   1.283       .  A
O885        C899   1.265       .  A
O886        C891   1.271       .  A
O887        C890   1.268       .  A
O888        C900   1.264       .  A
O889        C902   1.283       .  A
C890        O895   1.270       .  A
C890       C1031   1.483       .  S
C891        C978   1.466       .  S
O893        C896   1.265       .  A
O894        C896   1.264       .  A
C896        C918   1.467       .  S
O897        C902   1.275       .  A
O898        C900   1.277       .  A
C899       C1386   1.472       .  S
C902        C984   1.468       .  S
Fe903       O919   2.048       .  S
Fe903       O909   2.065       .  S
Fe903       O916   2.061       .  S
Fe903       O914   1.923       .  S
Fe904       O907   2.031       .  S
Fe904       O911   2.114       .  S
Fe904       O915   2.077       .  S
Fe904       O920   2.105       .  S
Fe904       O914   1.935       .  S
Fe905       O923   2.120       .  S
Fe905       O917   2.105       .  S
Fe905       O914   1.931       .  S
O906        C913   1.281       .  A
O907        C921   1.266       .  A
O908        C913   1.271       .  A
O909        C912   1.268       .  A
O910        C922   1.263       .  A
O911        C924   1.283       .  A
C912        O917   1.270       .  A
C912        C943   1.483       .  S
C913       C1000   1.466       .  S
O915        C918   1.265       .  A
O916        C918   1.264       .  A
O919        C924   1.275       .  A
C921        O923   1.279       .  A
C921       C1254   1.474       .  S
C924       C1006   1.466       .  S
Fe925       O941   2.051       .  S
Fe925       O931   2.056       .  S
Fe925       O938   2.047       .  S
Fe925       O930   2.057       .  S
Fe925       O936   1.926       .  S
Fe926       O929   2.128       .  S
Fe926       O933   2.112       .  S
Fe926       O937   2.121       .  S
Fe926       O942   2.027       .  S
Fe926       O936   1.930       .  S
Fe927       O945   2.028       .  S
Fe927       O932   2.097       .  S
Fe927       O939   2.118       .  S
Fe927       O928   2.077       .  S
Fe927       O936   1.931       .  S
O928        C935   1.262       .  A
O929        C943   1.281       .  A
O930        C935   1.261       .  A
O931        C934   1.278       .  A
O932        C944   1.276       .  A
O933        C946   1.268       .  A
C934        O939   1.286       .  A
C935        C957   1.469   1_545  S
O937        C940   1.289       .  A
O938        C940   1.274       .  A
C940       C1518   1.462       .  S
O941        C946   1.259       .  A
O942        C944   1.266       .  A
C943        O945   1.267       .  A
C944       C1010   1.450       .  S
C946       C1581   1.481       .  S
Fe947       O963   2.054       .  S
Fe947       O953   2.055       .  S
Fe947       O960   2.049       .  S
Fe947       O952   2.047       .  S
Fe947       O958   1.939       .  S
Fe948       O951   2.107       .  S
Fe948       O955   2.087       .  S
Fe948       O959   2.122       .  S
Fe948       O964   1.994       .  S
Fe948       O958   1.936       .  S
Fe949       O967   2.040       .  S
Fe949       O954   2.098       .  S
Fe949       O961   2.105       .  S
Fe949       O950   2.073       .  S
Fe949       O958   1.954       .  S
O950        C957   1.260       .  A
O951        C965   1.274       .  A
O952        C957   1.258       .  A
O953        C956   1.280       .  A
O954        C966   1.274       .  A
O955        C968   1.260       .  A
C956        O961   1.286       .  A
C956       C1529   1.460       .  S
O959        C962   1.289       .  A
O960        C962   1.275       .  A
O963        C968   1.259       .  A
O964        C966   1.265       .  A
C965        O967   1.268       .  A
C965       C1072   1.484       .  S
C966       C1054   1.455       .  S
C968       C1494   1.473       .  S
Fe969       O985   2.065       .  S
Fe969       O975   2.051       .  S
Fe969       O982   2.063       .  S
Fe969       O974   2.060       .  S
Fe969       O980   1.918       .  S
Fe970       O973   2.115       .  S
Fe970       O977   2.104       .  S
Fe970       O981   2.102       .  S
Fe970       O986   2.031       .  S
Fe970       O980   1.925       .  S
Fe971       O989   2.030       .  S
Fe971       O976   2.111       .  S
Fe971       O983   2.109       .  S
Fe971       O972   2.074       .  S
Fe971       O980   1.941       .  S
O972        C979   1.266       .  A
O973        C987   1.278       .  A
O974        C979   1.265       .  A
O975        C978   1.274       .  A
O976        C988   1.277       .  A
O977        C990   1.271       .  A
C978        O983   1.281       .  A
C979       C1001   1.464       .  S
O981        C984   1.281       .  A
O982        C984   1.272       .  A
O985        C990   1.269       .  A
O986        C988   1.264       .  A
C987        O989   1.265       .  A
C987       C1094   1.468   1_545  S
C988       C1032   1.452   1_545  S
Fe991      O1007   2.063       .  S
Fe991       O997   2.056       .  S
Fe991      O1004   2.064       .  S
Fe991       O996   2.058       .  S
Fe991      O1002   1.919       .  S
Fe992       O995   2.116       .  S
Fe992       O999   2.101       .  S
Fe992      O1003   2.099       .  S
Fe992      O1008   2.032       .  S
Fe992      O1002   1.929       .  S
Fe993      O1011   2.037       .  S
Fe993       O998   2.106       .  S
Fe993      O1005   2.104       .  S
Fe993       O994   2.076       .  S
Fe993      O1002   1.940       .  S
O994       C1001   1.267       .  A
O995       C1009   1.278       .  A
O996       C1001   1.265       .  A
O997       C1000   1.275       .  A
O998       C1010   1.276       .  A
O999       C1012   1.271       .  A
C1000      O1005   1.279       .  A
O1003      C1006   1.279       .  A
O1004      C1006   1.271       .  A
O1007      C1012   1.270       .  A
O1008      C1010   1.264       .  A
C1009      O1011   1.267       .  A
C1009      C1506   1.471       .  S
Fe1013     O1029   2.054       .  S
Fe1013     O1026   2.046       .  S
Fe1013     O1018   2.056       .  S
Fe1013     O1024   1.927       .  S
Fe1014     O1017   2.127       .  S
Fe1014     O1021   2.116       .  S
Fe1014     O1025   2.121       .  S
Fe1014     O1030   2.025       .  S
Fe1014     O1024   1.927       .  S
Fe1015     O1020   2.102       .  S
Fe1015     O1016   2.077       .  S
Fe1015     O1024   1.929       .  S
O1016      C1023   1.262       .  A
O1018      C1023   1.260       .  A
O1019      C1022   1.279       .  A
O1020      C1032   1.277       .  A
O1021      C1034   1.268       .  A
C1022      O1027   1.287       .  A
C1022      C1100   1.468       .  S
C1023      C1045   1.468       .  S
O1025      C1028   1.289       .  A
O1026      C1028   1.274       .  A
C1028      C1089   1.463       .  S
O1029      C1034   1.259       .  A
O1030      C1032   1.266       .  A
C1031      O1033   1.267   1_545  A
C1034      C1185   1.485   1_455  S
Fe1035     O1051   2.057       .  S
Fe1035     O1041   2.057       .  S
Fe1035     O1040   2.051       .  S
Fe1035     O1046   1.939       .  S
Fe1036     O1039   2.105       .  S
Fe1036     O1043   2.088       .  S
Fe1036     O1046   1.937       .  S
Fe1037     O1055   2.030       .  S
Fe1037     O1042   2.103       .  S
Fe1037     O1049   2.112       .  S
Fe1037     O1038   2.070       .  S
Fe1037     O1046   1.952       .  S
O1038      C1045   1.259       .  A
O1039      C1053   1.274       .  A
O1040      C1045   1.259       .  A
O1041      C1044   1.280       .  A
O1043      C1056   1.260       .  A
C1044      O1049   1.287       .  A
C1044      C1078   1.465       .  S
O1047      C1050   1.288       .  A
O1048      C1050   1.273       .  A
C1050      C1067   1.470       .  S
O1051      C1056   1.260       .  A
O1052      C1054   1.265       .  A
C1053      O1055   1.265       .  A
C1053      C1528   1.479       .  S
C1056      C1141   1.474       .  S
Fe1057     O1073   2.047       .  S
Fe1057     O1063   2.054       .  S
Fe1057     O1070   2.055       .  S
Fe1057     O1062   2.054       .  S
Fe1057     O1068   1.928       .  S
Fe1058     O1061   2.019       .  S
Fe1058     O1065   2.126       .  S
Fe1058     O1069   2.111       .  S
Fe1058     O1074   2.129       .  S
Fe1058     O1068   1.928       .  S
Fe1059     O1077   2.099       .  S
Fe1059     O1064   2.030       .  S
Fe1059     O1071   2.078       .  S
Fe1059     O1060   2.123       .  S
Fe1059     O1068   1.933       .  S
O1060      C1067   1.288       .  A
O1061      C1075   1.265       .  A
O1062      C1067   1.279       .  A
O1063      C1066   1.259       .  A
O1064      C1076   1.268       .  A
O1065      C1078   1.291       .  A
C1066      O1071   1.261       .  A
C1066      C1088   1.468       .  S
O1069      C1072   1.267       .  A
O1070      C1072   1.259       .  A
O1073      C1078   1.275       .  A
O1074      C1076   1.282       .  A
C1075      O1077   1.276       .  A
C1075      C1142   1.450       .  S
C1076      C1452   1.486       .  S
Fe1079     O1095   2.048       .  S
Fe1079     O1085   2.046       .  S
Fe1079     O1092   2.052       .  S
Fe1079     O1084   2.059       .  S
Fe1079     O1090   1.941       .  S
Fe1080     O1083   1.998       .  S
Fe1080     O1087   2.120       .  S
Fe1080     O1091   2.083       .  S
Fe1080     O1096   2.109       .  S
Fe1080     O1090   1.941       .  S
Fe1081     O1099   2.097       .  S
Fe1081     O1086   2.032       .  S
Fe1081     O1093   2.071       .  S
Fe1081     O1082   2.104       .  S
Fe1081     O1090   1.952       .  S
O1082      C1089   1.285       .  A
O1083      C1097   1.266       .  A
O1084      C1089   1.280       .  A
O1085      C1088   1.258       .  A
O1086      C1098   1.266   1_455  A
O1087      C1100   1.288       .  A
C1088      O1093   1.260       .  A
O1091      C1094   1.259       .  A
O1092      C1094   1.259       .  A
O1095      C1100   1.273       .  A
O1096      C1098   1.273   1_455  A
C1097      O1099   1.273       .  A
C1097      C1186   1.456   1_455  S
C1098      C1210   1.483       .  S
Fe1101     O1117   2.056       .  S
Fe1101     O1107   2.056       .  S
Fe1101     O1114   2.063       .  S
Fe1101     O1106   2.050       .  S
Fe1101     O1112   1.923       .  S
Fe1102     O1105   2.027       .  S
Fe1102     O1109   2.107       .  S
Fe1102     O1113   2.101       .  S
Fe1102     O1118   2.119       .  S
Fe1102     O1112   1.924       .  S
Fe1103     O1121   2.106       .  S
Fe1103     O1108   2.033       .  S
Fe1103     O1115   2.072       .  S
Fe1103     O1104   2.109       .  S
Fe1103     O1112   1.936       .  S
O1104      C1111   1.281       .  A
O1105      C1119   1.264       .  A
O1106      C1111   1.275       .  A
O1107      C1110   1.263       .  A
O1108      C1120   1.267       .  A
O1109      C1122   1.283       .  A
C1110      O1115   1.265       .  A
C1110      C1138   1.460   1_655  S
C1111      C1424   1.464       .  S
O1113      C1116   1.269       .  A
O1114      C1116   1.268       .  A
C1116      C1361   1.480       .  S
O1117      C1122   1.271       .  A
O1118      C1120   1.279       .  A
C1119      O1121   1.276       .  A
C1119      C1164   1.450       .  S
C1120      C1232   1.473       .  S
Fe1123     O1139   2.052       .  S
Fe1123     O1129   2.071       .  S
Fe1123     O1136   2.061       .  S
Fe1123     O1128   2.062       .  S
Fe1123     O1134   1.926       .  S
Fe1124     O1127   2.030       .  S
Fe1124     O1131   2.107       .  S
Fe1124     O1135   2.065       .  S
Fe1124     O1140   2.104       .  S
Fe1124     O1134   1.943       .  S
Fe1125     O1143   2.120       .  S
Fe1125     O1130   2.025       .  S
Fe1125     O1137   2.104       .  S
Fe1125     O1126   2.108       .  S
Fe1125     O1134   1.924       .  S
O1126      C1133   1.283       .  A
O1127      C1141   1.266       .  A
O1128      C1133   1.272       .  A
O1129      C1132   1.268       .  A
O1130      C1142   1.264       .  A
O1131      C1144   1.281       .  A
C1132      O1137   1.270       .  A
C1132      C1405   1.482       .  S
C1133      C1440   1.471       .  S
O1135      C1138   1.263       .  A
O1136      C1138   1.265       .  A
O1139      C1144   1.275       .  A
O1140      C1142   1.275       .  A
C1141      O1143   1.279       .  A
Fe1145     O1161   2.055       .  S
Fe1145     O1151   2.048       .  S
Fe1145     O1158   2.054       .  S
Fe1145     O1156   1.931       .  S
Fe1146     O1149   2.026       .  S
Fe1146     O1153   2.120       .  S
Fe1146     O1157   2.072       .  S
Fe1146     O1162   2.092       .  S
Fe1146     O1156   1.930       .  S
Fe1147     O1165   2.128       .  S
Fe1147     O1159   2.106       .  S
Fe1147     O1156   1.933       .  S
O1148      C1155   1.288       .  A
O1149      C1163   1.267       .  A
O1150      C1155   1.274       .  A
O1151      C1154   1.257       .  A
O1152      C1164   1.266       .  A
O1153      C1166   1.288       .  A
C1154      O1159   1.265       .  A
C1154      C1251   1.477       .  S
C1155      C1220   1.461       .  S
O1157      C1160   1.259       .  A
O1158      C1160   1.259       .  A
C1160      C1182   1.467       .  S
O1161      C1166   1.280       .  A
C1163      O1165   1.281       .  A
C1163      C1430   1.487       .  S
C1166      C1226   1.468       .  S
Fe1167     O1173   2.053       .  S
Fe1167     O1180   2.045       .  S
Fe1167     O1172   2.046       .  S
Fe1167     O1178   1.938       .  S
Fe1168     O1179   2.073       .  S
Fe1168     O1184   2.100       .  S
Fe1168     O1178   1.947       .  S
Fe1169     O1187   2.106       .  S
Fe1169     O1174   1.994       .  S
Fe1169     O1181   2.085       .  S
Fe1169     O1170   2.121       .  S
Fe1169     O1178   1.935       .  S
O1170      C1177   1.289       .  A
O1171      C1185   1.267       .  A
O1172      C1177   1.274       .  A
O1173      C1176   1.259       .  A
O1174      C1186   1.265       .  A
O1175      C1188   1.286       .  A
C1176      O1181   1.259       .  A
C1176      C1317   1.470       .  S
C1177      C1198   1.468       .  S
O1179      C1182   1.260       .  A
O1180      C1182   1.257       .  A
O1183      C1188   1.280       .  A
O1184      C1186   1.274       .  A
C1188      C1204   1.461       .  S
Fe1189     O1205   2.051       .  S
Fe1189     O1195   2.057       .  S
Fe1189     O1202   2.045       .  S
Fe1189     O1194   2.058       .  S
Fe1189     O1200   1.924       .  S
Fe1190     O1193   2.128       .  S
Fe1190     O1197   2.116       .  S
Fe1190     O1201   2.116       .  S
Fe1190     O1206   2.032       .  S
Fe1190     O1200   1.929       .  S
Fe1191     O1209   2.032       .  S
Fe1191     O1196   2.102       .  S
Fe1191     O1203   2.112       .  S
Fe1191     O1192   2.076       .  S
Fe1191     O1200   1.929       .  S
O1192      C1199   1.264       .  A
O1193      C1207   1.281       .  A
O1194      C1199   1.262       .  A
O1195      C1198   1.277       .  A
O1196      C1208   1.277       .  A
O1197      C1210   1.270       .  A
C1198      O1203   1.284       .  A
C1199      C1221   1.467       .  S
O1201      C1204   1.287       .  A
O1202      C1204   1.273       .  A
O1205      C1210   1.260       .  A
O1206      C1208   1.266       .  A
C1207      O1209   1.267       .  A
C1207      C1462   1.482       .  S
C1208      C1318   1.453       .  S
Fe1211     O1227   2.056       .  S
Fe1211     O1217   2.054       .  S
Fe1211     O1224   2.050       .  S
Fe1211     O1216   2.051       .  S
Fe1211     O1222   1.938       .  S
Fe1212     O1215   2.106       .  S
Fe1212     O1219   2.090       .  S
Fe1212     O1223   2.119       .  S
Fe1212     O1228   2.003       .  S
Fe1212     O1222   1.936       .  S
Fe1213     O1231   2.037       .  S
Fe1213     O1218   2.097       .  S
Fe1213     O1225   2.107       .  S
Fe1213     O1214   2.069       .  S
Fe1213     O1222   1.950       .  S
O1214      C1221   1.259       .  A
O1215      C1229   1.274       .  A
O1216      C1221   1.259       .  A
O1217      C1220   1.280       .  A
O1218      C1230   1.273       .  A
O1219      C1232   1.261       .  A
C1220      O1225   1.285       .  A
O1223      C1226   1.288       .  A
O1224      C1226   1.275       .  A
O1227      C1232   1.260       .  A
O1228      C1230   1.267       .  A
C1229      O1231   1.267       .  A
C1230      C1252   1.456       .  S
Fe1233     O1249   2.057       .  S
Fe1233     O1239   2.050       .  S
Fe1233     O1246   2.050       .  S
Fe1233     O1238   2.048       .  S
Fe1233     O1244   1.938       .  S
Fe1234     O1237   2.099       .  S
Fe1234     O1241   2.088       .  S
Fe1234     O1245   2.118       .  S
Fe1234     O1250   1.997       .  S
Fe1234     O1244   1.938       .  S
Fe1235     O1253   2.035       .  S
Fe1235     O1240   2.103       .  S
Fe1235     O1247   2.113       .  S
Fe1235     O1236   2.075       .  S
Fe1235     O1244   1.953       .  S
O1236      C1243   1.261       .  A
O1237      C1251   1.273       .  A
O1238      C1243   1.259       .  A
O1239      C1242   1.278       .  A
O1240      C1252   1.275       .  A
O1241      C1254   1.260       .  A
C1242      O1247   1.286       .  A
C1243      C1265   1.468       .  S
O1245      C1248   1.288       .  A
O1246      C1248   1.274       .  A
O1249      C1254   1.261       .  A
O1250      C1252   1.265       .  A
C1251      O1253   1.267       .  A
Fe1255     O1271   2.056       .  S
Fe1255     O1261   2.055       .  S
Fe1255     O1268   2.048       .  S
Fe1255     O1260   2.059       .  S
Fe1255     O1266   1.921       .  S
Fe1256     O1259   2.130       .  S
Fe1256     O1263   2.116       .  S
Fe1256     O1267   2.114       .  S
Fe1256     O1272   2.029       .  S
Fe1256     O1266   1.926       .  S
Fe1257     O1275   2.032       .  S
Fe1257     O1262   2.099       .  S
Fe1257     O1269   2.108       .  S
Fe1257     O1258   2.078       .  S
Fe1257     O1266   1.932       .  S
O1258      C1265   1.264       .  A
O1259      C1273   1.281       .  A
O1260      C1265   1.263       .  A
O1261      C1264   1.276       .  A
O1262      C1274   1.276       .  A
O1263      C1276   1.271       .  A
C1264      O1269   1.283       .  A
O1267      C1270   1.286       .  A
O1268      C1270   1.273       .  A
O1271      C1276   1.262       .  A
O1272      C1274   1.265       .  A
C1273      O1275   1.267       .  A
C1273      C1490   1.481       .  S
C1274      C1296   1.448       .  S
Fe1277     O1293   2.064       .  S
Fe1277     O1283   2.056       .  S
Fe1277     O1282   2.068       .  S
Fe1277     O1288   1.921       .  S
Fe1278     O1281   2.118       .  S
Fe1278     O1285   2.106       .  S
Fe1278     O1288   1.933       .  S
Fe1279     O1297   2.031       .  S
Fe1279     O1284   2.108       .  S
Fe1279     O1291   2.109       .  S
Fe1279     O1280   2.076       .  S
Fe1279     O1288   1.938       .  S
O1280      C1287   1.266       .  A
O1281      C1295   1.278       .  A
O1282      C1287   1.267       .  A
O1283      C1286   1.275       .  A
O1285      C1298   1.271       .  A
C1286      O1291   1.281       .  A
C1286      C1496   1.469       .  S
C1287      C1309   1.470       .  S
O1289      C1292   1.281       .  A
O1290      C1292   1.271       .  A
C1292      C1485   1.468       .  S
O1293      C1298   1.269       .  A
O1294      C1296   1.263       .  A
C1295      O1297   1.265       .  A
C1298      C1537   1.484       .  S
Fe1299     O1315   2.065       .  S
Fe1299     O1312   2.054       .  S
Fe1299     O1304   2.061       .  S
Fe1299     O1310   1.921       .  S
Fe1300     O1303   2.115       .  S
Fe1300     O1307   2.107       .  S
Fe1300     O1311   2.100       .  S
Fe1300     O1316   2.030       .  S
Fe1300     O1310   1.927       .  S
Fe1301     O1306   2.109       .  S
Fe1301     O1302   2.083       .  S
Fe1301     O1310   1.936       .  S
O1302      C1309   1.267       .  A
O1304      C1309   1.264       .  A
O1305      C1308   1.276       .  A
O1306      C1318   1.277       .  A
O1307      C1320   1.270       .  A
C1308      O1313   1.283       .  A
C1308      C1463   1.470       .  S
O1311      C1314   1.281       .  A
O1312      C1314   1.271       .  A
C1314      C1474   1.462       .  S
O1315      C1320   1.269       .  A
O1316      C1318   1.263       .  A
C1317      O1319   1.266       .  A
C1320      C1560   1.485       .  S
Fe1321     O1337   2.059       .  S
Fe1321     O1327   2.048       .  S
Fe1321     O1334   2.045       .  S
Fe1321     O1326   2.050       .  S
Fe1321     O1332   1.943       .  S
Fe1322     O1325   2.116       .  S
Fe1322     O1329   2.095       .  S
Fe1322     O1333   2.122       .  S
Fe1322     O1338   2.005       .  S
Fe1322     O1332   1.934       .  S
Fe1323     O1341   2.036       .  S
Fe1323     O1328   2.104       .  S
Fe1323     O1335   2.111       .  S
Fe1323     O1324   2.068       .  S
Fe1323     O1332   1.949       .  S
O1324      C1331   1.259       .  A
O1325      C1339   1.276       .  A
O1326      C1331   1.259       .  A
O1327      C1330   1.278       .  A
O1328      C1340   1.275       .  A
O1329      C1342   1.263       .  A
C1330      O1335   1.286       .  A
C1330      C1562   1.459       .  S
C1331      C1353   1.466       .  S
O1333      C1336   1.288       .  A
O1334      C1336   1.273       .  A
C1336      C1551   1.468       .  S
O1337      C1342   1.260       .  A
O1338      C1340   1.267       .  A
C1339      O1341   1.267       .  A
C1340      C1384   1.460   1_655  S
C1342      C1471   1.476       .  S
Fe1343     O1359   2.053       .  S
Fe1343     O1349   2.057       .  S
Fe1343     O1356   2.048       .  S
Fe1343     O1348   2.055       .  S
Fe1343     O1354   1.927       .  S
Fe1344     O1347   2.123       .  S
Fe1344     O1351   2.112       .  S
Fe1344     O1355   2.116       .  S
Fe1344     O1360   2.028       .  S
Fe1344     O1354   1.930       .  S
Fe1345     O1363   2.028       .  S
Fe1345     O1350   2.103       .  S
Fe1345     O1357   2.122       .  S
Fe1345     O1346   2.075       .  S
Fe1345     O1354   1.931       .  S
O1346      C1353   1.262       .  A
O1347      C1361   1.280       .  A
O1348      C1353   1.261       .  A
O1349      C1352   1.278       .  A
O1350      C1362   1.277       .  A
O1351      C1364   1.269       .  A
C1352      O1357   1.286       .  A
C1352      C1573   1.472       .  S
O1355      C1358   1.287       .  A
O1356      C1358   1.273       .  A
C1358      C1584   1.461       .  S
O1359      C1364   1.261       .  A
O1360      C1362   1.266       .  A
C1361      O1363   1.267       .  A
C1362      C1428   1.453       .  S
C1364      C1515   1.483       .  S
Fe1365     O1381   2.058       .  S
Fe1365     O1378   2.049       .  S
Fe1365     O1370   2.052       .  S
Fe1365     O1376   1.940       .  S
Fe1366     O1369   2.107       .  S
Fe1366     O1373   2.085       .  S
Fe1366     O1377   2.121       .  S
Fe1366     O1382   2.000       .  S
Fe1366     O1376   1.935       .  S
Fe1367     O1372   2.106       .  S
Fe1367     O1368   2.078       .  S
Fe1367     O1376   1.949       .  S
O1368      C1375   1.261       .  A
O1370      C1375   1.259       .  A
O1371      C1374   1.278       .  A
O1372      C1384   1.276       .  A
O1373      C1386   1.259       .  A
C1374      O1379   1.287       .  A
C1375      C1397   1.471       .  S
O1377      C1380   1.289       .  A
O1378      C1380   1.275       .  A
O1381      C1386   1.260       .  A
O1382      C1384   1.265       .  A
C1383      O1385   1.268   1_655  A
C1383      C1556   1.483       .  S
Fe1387     O1403   2.053       .  S
Fe1387     O1393   2.055       .  S
Fe1387     O1392   2.060       .  S
Fe1387     O1398   1.923       .  S
Fe1388     O1391   2.132       .  S
Fe1388     O1395   2.111       .  S
Fe1388     O1398   1.928       .  S
Fe1389     O1407   2.038       .  S
Fe1389     O1394   2.110       .  S
Fe1389     O1401   2.113       .  S
Fe1389     O1390   2.084       .  S
Fe1389     O1398   1.932       .  S
O1390      C1397   1.267       .  A
O1391      C1405   1.281       .  A
O1392      C1397   1.264       .  A
O1393      C1396   1.275       .  A
O1395      C1408   1.272       .  A
C1396      O1401   1.283       .  A
O1399      C1402   1.285       .  A
O1400      C1402   1.272       .  A
O1403      C1408   1.264       .  A
O1404      C1406   1.267       .  A
C1405      O1407   1.267       .  A
C1406      C1450   1.455       .  S
Fe1409     O1425   2.063       .  S
Fe1409     O1415   2.054       .  S
Fe1409     O1422   2.059       .  S
Fe1409     O1414   2.061       .  S
Fe1409     O1420   1.919       .  S
Fe1410     O1413   2.114       .  S
Fe1410     O1417   2.109       .  S
Fe1410     O1421   2.098       .  S
Fe1410     O1426   2.035       .  S
Fe1410     O1420   1.929       .  S
Fe1411     O1429   2.031       .  S
Fe1411     O1416   2.109       .  S
Fe1411     O1423   2.112       .  S
Fe1411     O1412   2.076       .  S
Fe1411     O1420   1.938       .  S
O1412      C1419   1.266       .  A
O1413      C1427   1.278       .  A
O1414      C1419   1.265       .  A
O1415      C1418   1.275       .  A
O1416      C1428   1.276       .  A
O1417      C1430   1.272       .  A
C1418      O1423   1.281       .  A
C1419      C1441   1.465   1_655  S
O1421      C1424   1.280       .  A
O1422      C1424   1.271       .  A
O1425      C1430   1.270       .  A
O1426      C1428   1.264       .  A
C1427      O1429   1.266       .  A
C1427      C1572   1.468       .  S
Fe1431     O1447   2.064       .  S
Fe1431     O1437   2.055       .  S
Fe1431     O1444   2.058       .  S
Fe1431     O1436   2.061       .  S
Fe1431     O1442   1.923       .  S
Fe1432     O1435   2.121       .  S
Fe1432     O1439   2.109       .  S
Fe1432     O1443   2.105       .  S
Fe1432     O1448   2.031       .  S
Fe1432     O1442   1.928       .  S
Fe1433     O1451   2.030       .  S
Fe1433     O1438   2.113       .  S
Fe1433     O1445   2.117       .  S
Fe1433     O1434   2.076       .  S
Fe1433     O1442   1.938       .  S
O1434      C1441   1.265       .  A
O1435      C1449   1.280       .  A
O1436      C1441   1.264       .  A
O1437      C1440   1.275       .  A
O1438      C1450   1.278       .  A
O1439      C1452   1.271       .  A
C1440      O1445   1.283       .  A
O1443      C1446   1.282       .  A
O1444      C1446   1.272       .  A
O1447      C1452   1.268       .  A
O1448      C1450   1.264       .  A
C1449      O1451   1.266       .  A
Fe1453     O1469   2.053       .  S
Fe1453     O1459   2.068       .  S
Fe1453     O1466   2.062       .  S
Fe1453     O1458   2.063       .  S
Fe1453     O1464   1.922       .  S
Fe1454     O1457   2.038       .  S
Fe1454     O1461   2.101       .  S
Fe1454     O1465   2.073       .  S
Fe1454     O1470   2.106       .  S
Fe1454     O1464   1.941       .  S
Fe1455     O1473   2.120       .  S
Fe1455     O1460   2.028       .  S
Fe1455     O1467   2.104       .  S
Fe1455     O1456   2.104       .  S
Fe1455     O1464   1.925       .  S
O1456      C1463   1.281       .  A
O1457      C1471   1.267   1_565  A
O1458      C1463   1.271       .  A
O1459      C1462   1.270       .  A
O1460      C1472   1.264       .  A
O1461      C1474   1.279       .  A
C1462      O1467   1.271       .  A
O1465      C1468   1.266       .  A
O1466      C1468   1.266       .  A
C1468      C1484   1.464       .  S
O1469      C1474   1.275       .  A
O1470      C1472   1.275       .  A
C1471      O1473   1.278   1_545  A
C1472      C1559   1.450   1_565  S
Fe1475     O1491   2.059       .  S
Fe1475     O1481   2.058       .  S
Fe1475     O1488   2.065       .  S
Fe1475     O1480   2.052       .  S
Fe1475     O1486   1.923       .  S
Fe1476     O1479   2.023       .  S
Fe1476     O1483   2.108       .  S
Fe1476     O1487   2.104       .  S
Fe1476     O1492   2.115       .  S
Fe1476     O1486   1.924       .  S
Fe1477     O1495   2.107       .  S
Fe1477     O1482   2.033       .  S
Fe1477     O1489   2.076       .  S
Fe1477     O1478   2.114       .  S
Fe1477     O1486   1.939       .  S
O1478      C1485   1.283       .  A
O1479      C1493   1.264       .  A
O1480      C1485   1.275       .  A
O1481      C1484   1.263       .  A
O1482      C1494   1.267       .  A
O1483      C1496   1.283       .  A
C1484      O1489   1.265       .  A
O1487      C1490   1.269       .  A
O1488      C1490   1.267       .  A
O1491      C1496   1.272       .  A
O1492      C1494   1.278       .  A
C1493      O1495   1.276       .  A
C1493      C1538   1.450       .  S
Fe1497     O1513   2.058       .  S
Fe1497     O1503   2.047       .  S
Fe1497     O1510   2.039       .  S
Fe1497     O1502   2.052       .  S
Fe1497     O1508   1.943       .  S
Fe1498     O1501   2.036       .  S
Fe1498     O1505   2.105       .  S
Fe1498     O1509   2.072       .  S
Fe1498     O1514   2.099       .  S
Fe1498     O1508   1.958       .  S
Fe1499     O1517   2.109       .  S
Fe1499     O1504   2.002       .  S
Fe1499     O1511   2.090       .  S
Fe1499     O1500   2.121       .  S
Fe1499     O1508   1.942       .  S
O1500      C1507   1.288       .  A
O1501      C1515   1.266       .  A
O1502      C1507   1.274       .  A
O1503      C1506   1.258       .  A
O1504      C1516   1.266       .  A
O1505      C1518   1.286       .  A
C1506      O1511   1.261       .  A
O1509      C1512   1.260       .  A
O1510      C1512   1.256       .  A
C1512      C1534   1.467   1_545  S
O1513      C1518   1.280       .  A
O1514      C1516   1.274       .  A
C1515      O1517   1.274       .  A
C1516      C1582   1.458       .  S
Fe1519     O1535   2.055       .  S
Fe1519     O1525   2.054       .  S
Fe1519     O1532   2.058       .  S
Fe1519     O1524   2.040       .  S
Fe1519     O1530   1.929       .  S
Fe1520     O1523   2.027       .  S
Fe1520     O1527   2.119       .  S
Fe1520     O1531   2.072       .  S
Fe1520     O1536   2.097       .  S
Fe1520     O1530   1.929       .  S
Fe1521     O1539   2.125       .  S
Fe1521     O1526   2.020       .  S
Fe1521     O1533   2.106       .  S
Fe1521     O1522   2.124       .  S
Fe1521     O1530   1.929       .  S
O1522      C1529   1.291       .  A
O1523      C1537   1.267       .  A
O1524      C1529   1.273       .  A
O1525      C1528   1.259       .  A
O1526      C1538   1.266       .  A
O1527      C1540   1.287       .  A
C1528      O1533   1.265       .  A
O1531      C1534   1.260       .  A
O1532      C1534   1.261       .  A
O1535      C1540   1.279       .  A
O1536      C1538   1.275       .  A
C1537      O1539   1.281       .  A
Fe1541     O1557   2.042       .  S
Fe1541     O1547   2.058       .  S
Fe1541     O1554   2.055       .  S
Fe1541     O1552   1.927       .  S
Fe1542     O1545   2.023       .  S
Fe1542     O1549   2.120       .  S
Fe1542     O1553   2.112       .  S
Fe1542     O1558   2.120       .  S
Fe1542     O1552   1.928       .  S
Fe1543     O1561   2.098       .  S
Fe1543     O1555   2.071       .  S
Fe1543     O1552   1.931       .  S
O1544      C1551   1.286       .  A
O1545      C1559   1.266       .  A
O1546      C1551   1.278       .  A
O1547      C1550   1.260       .  A
O1548      C1560   1.267   1_545  A
O1549      C1562   1.290       .  A
C1550      O1555   1.259       .  A
C1550      C1578   1.467       .  S
O1553      C1556   1.267       .  A
O1554      C1556   1.258       .  A
O1557      C1562   1.275       .  A
C1559      O1561   1.276       .  A
Fe1563     O1579   2.054       .  S
Fe1563     O1569   2.051       .  S
Fe1563     O1576   2.043       .  S
Fe1563     O1574   1.940       .  S
Fe1564     O1567   2.038       .  S
Fe1564     O1571   2.108       .  S
Fe1564     O1575   2.073       .  S
Fe1564     O1580   2.098       .  S
Fe1564     O1574   1.949       .  S
Fe1565     O1583   2.104       .  S
Fe1565     O1577   2.085       .  S
Fe1565     O1574   1.937       .  S
O1566      C1573   1.290       .  A
O1567      C1581   1.268       .  A
O1568      C1573   1.275       .  A
O1569      C1572   1.258       .  A
O1570      C1582   1.265       .  A
O1571      C1584   1.286       .  A
C1572      O1577   1.259       .  A
O1575      C1578   1.260       .  A
O1576      C1578   1.257       .  A
O1579      C1584   1.280       .  A
C1581      O1583   1.273       .  A
