geometry optimzed in LAMMPS
_audit_creation_date              2020-12-01 
_audit_creation_method            'lammps2cif' 
_symmetry_space_group_name_H-M    'P1' 
_symmetry_Int_Tables_number       1 
_symmetry_cell_setting            triclinic 
loop_ 
_symmetry_equiv_pos_as_xyz 
  x,y,z 
_cell_length_a                    29.6749115 
_cell_length_b                    29.298880745915913 
_cell_length_c                    28.350780623513938 
_cell_angle_alpha                 91.42246440816187 
_cell_angle_beta                  91.97614695966982 
_cell_angle_gamma                 91.21005736711572 
loop_ 
_atom_site_label 
_atom_site_type_symbol 
_atom_site_fract_x 
_atom_site_fract_y 
_atom_site_fract_z 
_atom_site_charge 
Zr1        Zr  0.94681368  0.82609316  0.99935487     2.17500
O2          O  0.88702842  0.86875300  0.96066646    -0.51700
O3          O  0.95488521  0.89518327  0.05203858    -0.74900
O4          O  0.86839747  0.79693590  0.01887272    -0.81700
O5          O  0.04568498  0.87781314  0.92978865    -0.83500
O6          O  0.87442911  0.73080969  0.05927482    -0.79100
O7          O  0.96943171  0.87998775  0.93594676    -0.90700
O8          O  0.01517984  0.88623971  0.10210540    -0.76700
O9          O  0.95951785  0.78761645  0.07250638    -0.86200
O10         O  0.02418594  0.84037431  0.02201131    -0.85900
O11         O  0.93462084  0.74469014  0.98499911    -0.72600
O12         O  0.99212553  0.79513157  0.93755312    -0.84700
Zr13       Zr  0.06787626  0.69306206  0.01918203     2.26400
Zr14       Zr  0.95043194  0.70588544  0.05790936     2.06300
Zr15       Zr  0.06981566  0.80799363  0.96331825     2.10000
Zr16       Zr  0.03566078  0.80554062  0.09607987     1.78800
O17         O  0.09302249  0.81435954  0.88207496    -0.93600
O18         O  0.99157153  0.81291205  0.16678684    -0.41400
O19         O  0.08304228  0.77271785  0.03726353    -0.78000
O20         O  0.02596491  0.72373105  0.08333250    -0.96700
O21         O  0.99215183  0.67600934  0.99488462    -0.90000
O22         O  0.05496888  0.72961756  0.94615914    -0.92800
C23         C  0.98465144  0.91111222  0.08290267     1.00900
C24         C  0.00741785  0.89486143  0.91978143     1.13900
C25         C  0.85111073  0.76218259  0.04053687     1.04600
O26         O  0.94023455  0.70743488  0.14276168    -0.95000
O27         O  0.97619319  0.62729546  0.07742405    -0.90700
O28         O  0.04767273  0.62069560  0.05378008    -0.83900
C29         C  0.01243124  0.60388732  0.07245583     1.11300
O30         O  0.91161095  0.73135833  0.87429319    -0.97000
Zr31       Zr  0.97818698  0.71510649  0.92329028     1.88900
O32         O  0.07389815  0.63937734  0.95322329    -0.73600
O33         O  0.88854488  0.65122183  0.04125642    -0.52900
O34         O  0.92173663  0.65411087  0.91046028    -0.97500
O35         O  0.00327284  0.73664180  0.84580846    -0.54800
O36         O  0.01825020  0.64875369  0.89804774    -0.74100
C37         C  0.05329416  0.62873014  0.91370871     0.98200
O38         O  0.12846417  0.66515425  0.07040437    -0.62900
O39         O  0.12556064  0.86461103  0.99366606    -0.57700
O40         O  0.14306038  0.70793353  0.99397228    -0.94400
O41         O  0.14336214  0.77409754  0.95462267    -0.92900
O42         O  0.10730856  0.84559769  0.11363977    -0.93200
O43         O  0.07627946  0.77722063  0.16515135    -0.92000
C44         C  0.16261151  0.73816733  0.96949213     1.17100
H45         H  0.03202112  0.87244390  0.02215979     0.33000
H46         H  0.03332879  0.70787615  0.11197297     0.43900
H47         H  0.07481987  0.71945784  0.92192797     0.37400
H48         H  0.90408867  0.73784140  0.97400073     0.33900
H49         H  0.00887512  0.83525891  0.18743133     0.25700
H50         H  0.88093202  0.63905744  0.07231815     0.31600
H51         H  0.93154818  0.62959607  0.93166512     0.37500
H52         H  0.10398781  0.87599190  0.09959131     0.32000
H53         H  0.13877710  0.87739648  0.96510866     0.30800
H54         H  0.11441928  0.84077131  0.88252886     0.32500
H55         H  0.03083234  0.75564242  0.85224189     0.31500
H56         H  0.10007574  0.75787604  0.15212182     0.35500
H57         H  0.11469381  0.65955202  0.10110876     0.28200
H58         H  0.86544501  0.87639192  0.98537096     0.32500
H59         H  0.90564801  0.76392985  0.88120998     0.35300
H60         H  0.10809681  0.88995325  0.00701764     0.27900
H61         H  0.13532086  0.63444991  0.05747728     0.40800
H62         H  0.91897865  0.68169560  0.14795323     0.30800
H63         H  0.96420697  0.82941358  0.15681079     0.38500
H64         H  0.98084219  0.75815087  0.83338185     0.30300
H65         H  0.90196430  0.62536283  0.02398575     0.30400
H66         H  0.87095222  0.84630078  0.93914224     0.30600
Zr67       Zr  0.57010223  0.62925383  0.01230798     2.17500
O68         O  0.63203199  0.58111732  0.98872389    -0.51700
O69         O  0.56362536  0.56350025  0.06628915    -0.74900
O70         O  0.64720502  0.66362435  0.03036981    -0.81700
O71         O  0.47584899  0.56900860  0.93679848    -0.83500
O72         O  0.64155587  0.73087437  0.07189359    -0.79100
O73         O  0.55233224  0.57381899  0.94537011    -0.90700
O74         O  0.50667882  0.57625187  0.11579309    -0.76700
O75         O  0.55726465  0.67332474  0.08326682    -0.86200
O76         O  0.49395347  0.61325491  0.03186073    -0.85900
O77         O  0.57933128  0.70971302  0.99426358    -0.72600
O78         O  0.52302709  0.65291199  0.94653289    -0.84700
Zr79       Zr  0.44462089  0.75825775  0.02010902     2.26400
Zr80       Zr  0.56419736  0.75373943  0.06505097     2.06300
Zr81       Zr  0.44679363  0.63804865  0.96909767     2.10000
Zr82       Zr  0.48178249  0.65454093  0.10319075     1.78800
O83         O  0.41913828  0.62196805  0.88841320    -0.93600
O84         O  0.52194651  0.65618971  0.17969337    -0.41400
O85         O  0.43228347  0.67967969  0.04033402    -0.78000
O86         O  0.48956428  0.73498723  0.08716426    -0.96700
O87         O  0.51928738  0.77653380  0.99898493    -0.90000
O88         O  0.45749840  0.71543130  0.94970848    -0.92800
C89         C  0.53642297  0.55007727  0.09822193     1.00900
C90         C  0.51519168  0.55487280  0.92820239     1.13900
C91         C  0.66447325  0.69980092  0.05205304     1.04600
O92         O  0.58311810  0.76420889  0.14893613    -0.95000
O93         O  0.53392146  0.83064182  0.08523349    -0.90700
O94         O  0.46238003  0.83303181  0.05539610    -0.83900
C95         C  0.49667009  0.85199689  0.07734798     1.11300
O96         O  0.59980223  0.71533020  0.88576319    -0.97000
Zr97       Zr  0.53257482  0.73222695  0.92943660     1.88900
O98         O  0.43094909  0.80570171  0.95186055    -0.73600
O99         O  0.61639294  0.81378717  0.04161532    -0.52900
O100        O  0.58218780  0.79712856  0.91436126    -0.97500
O101        O  0.50970892  0.70140362  0.85146999    -0.54800
O102        O  0.48364673  0.79000296  0.89758984    -0.74100
C103        C  0.44857745  0.81055803  0.91148834     0.98200
O104        O  0.38909001  0.79355905  0.07000225    -0.62900
O105        O  0.40213513  0.57609605  0.00075178    -0.57700
O106        O  0.36967278  0.73523685  0.99345192    -0.96000
O107        O  0.37094314  0.66593389  0.95617712    -0.92900
O108        O  0.41294928  0.61070067  0.11667908    -0.93200
O109        O  0.43537301  0.68820150  0.16356443    -0.92000
C110        C  0.35073578  0.70201426  0.96958861     1.17100
H111        H  0.48708182  0.58101993  0.03312360     0.33000
H112        H  0.48208058  0.75296968  0.11471226     0.43900
H113        H  0.43641461  0.72180363  0.92424726     0.37400
H114        H  0.60912826  0.71707278  0.98382802     0.33900
H115        H  0.55269810  0.64581323  0.17314360     0.25700
H116        H  0.63591192  0.79948913  0.01804590     0.31600
H117        H  0.58728409  0.81282879  0.94544675     0.37500
H118        H  0.41832680  0.57972027  0.10362464     0.32000
H119        H  0.38334990  0.59100982  0.02448746     0.30800
H120        H  0.44087682  0.63789357  0.86845825     0.32500
H121        H  0.52471158  0.72160155  0.82902070     0.31500
H122        H  0.41076354  0.70312016  0.14564803     0.35500
H123        H  0.36818571  0.80921460  0.04807112     0.28200
H124        H  0.65053742  0.57633893  0.01785112     0.32500
H125        H  0.60740941  0.68383650  0.89454080     0.35300
H126        H  0.38077919  0.56641470  0.97464187     0.27900
H127        H  0.37110094  0.76783806  0.08215485     0.40800
H128        H  0.55371349  0.76588527  0.16425621     0.30800
H129        H  0.52598085  0.68898650  0.18833676     0.38500
H130        H  0.52514203  0.67189813  0.84841130     0.30300
H131        H  0.63651135  0.82028733  0.06968105     0.30400
H132        H  0.65116349  0.60006785  0.96860355     0.30600
Zr133      Zr  0.16068186  0.04780335  0.70261767     2.17500
O134        O  0.11971758  0.10699812  0.74395242    -0.51700
O135        O  0.09200827  0.04368203  0.65026419    -0.74900
O136        O  0.18906987  0.12752620  0.68696227    -0.81700
O137        O  0.10774222  0.94483079  0.76393334    -0.83500
O138        O  0.25028551  0.12287073  0.64068283    -0.79100
O139        O  0.10802970  0.02249327  0.76459043    -0.90700
O140        O  0.10132519  0.98952170  0.59287519    -0.76700
O141        O  0.19916757  0.04087219  0.62963907    -0.86200
O142        O  0.14518297  0.97184625  0.67315556    -0.85900
O143        O  0.24096970  0.05850769  0.71949208    -0.72600
O144        O  0.19087920  0.99705617  0.76082706    -0.84700
Zr145      Zr  0.29110630  0.92644385  0.67519099     2.26400
Zr146      Zr  0.27981800  0.04833845  0.64668373     2.06300
Zr147      Zr  0.17614726  0.92124551  0.72882733     2.10000
Zr148      Zr  0.18058063  0.96629863  0.59942335     1.78800
O149        O  0.16717124  0.89540525  0.80898400    -0.93600
O150        O  0.17954051  0.01768929  0.53306618    -0.41400
O151        O  0.21213672  0.91344065  0.65498958    -0.78000
O152        O  0.26130724  0.97436803  0.61457238    -0.96700
O153        O  0.30907661  0.00053021  0.70588902    -0.90000
O154        O  0.25359140  0.93380637  0.74770049    -0.92800
C155        C  0.07674160  0.01784495  0.61545211     1.00900
C156        C  0.09225484  0.98319087  0.77741938     1.13900
C157        C  0.22111693  0.14557410  0.66287136     1.04600
O158        O  0.29165289  0.06346200  0.56392007    -0.95000
O159        O  0.35897211  0.02617753  0.63118777    -0.90700
O160        O  0.36359300  0.95085007  0.64549541    -0.83900
C161        C  0.38144816  0.98876893  0.63279968     1.11300
O162        O  0.25386822  0.07224491  0.83072878    -0.97000
Zr163      Zr  0.27016691  0.00873612  0.77741250     1.88900
O164        O  0.34334117  0.91053220  0.74068301    -0.73600
O165        O  0.32663466  0.11257082  0.67689377    -0.52900
O166        O  0.33492937  0.06082760  0.78859255    -0.97500
O167        O  0.25082857  0.98390524  0.85574747    -0.54800
O168        O  0.32968213  0.95854704  0.80242120    -0.74100
C169        C  0.35018027  0.92503096  0.78362135     0.98200
O170        O  0.31498139  0.87090516  0.61611619    -0.62900
O171        O  0.11829474  0.86868060  0.69473534    -0.57700
O172        O  0.27670829  0.84987897  0.69837441    -0.94400
O173        O  0.20963537  0.84646296  0.73407011    -0.92900
O174        O  0.13814315  0.89717898  0.57477880    -0.93200
O175        O  0.20607197  0.92949290  0.52739293    -0.92000
C176        C  0.24616582  0.82856925  0.72039884     1.17100
H177        H  0.11350900  0.96370000  0.67167371     0.33000
H178        H  0.27711233  0.96930534  0.58574474     0.43900
H179        H  0.26262072  0.91140478  0.77033622     0.37400
H180        H  0.24745267  0.08881738  0.73219870     0.33900
H181        H  0.16061444  0.04346896  0.54281771     0.25700
H182        H  0.34471722  0.12196225  0.64994906     0.31600
H183        H  0.35959454  0.04601924  0.77170612     0.37500
H184        H  0.15630811  0.87172521  0.58683096     0.32000
H185        H  0.13384815  0.83984548  0.68784161     0.30800
H186        H  0.19714586  0.90039776  0.82481437     0.32500
H187        H  0.27492577  0.99720654  0.87722593     0.31500
H188        H  0.22700686  0.90581148  0.53841968     0.35500
H189        H  0.32317521  0.88901495  0.58853285     0.28200
H190        H  0.10966456  0.12850730  0.71954003     0.32500
H191        H  0.22311299  0.08147137  0.82086488     0.35300
H192        H  0.09874845  0.86143026  0.72128064     0.27900
H193        H  0.34397125  0.85940681  0.62885558     0.40800
H194        H  0.30462377  0.09488180  0.56405186     0.30800
H195        H  0.21048873  0.03089993  0.53267660     0.38500
H196        H  0.25645942  0.95072896  0.85544894     0.30300
H197        H  0.34854049  0.09908753  0.69932916     0.30400
H198        H  0.14270672  0.12412690  0.76381649     0.30600
Zr199      Zr  0.35704432  0.42283872  0.69356319     2.17500
O200        O  0.40707910  0.35951213  0.70933502    -0.51700
O201        O  0.42269409  0.43714554  0.64205753    -0.74900
O202        O  0.32305576  0.34582736  0.67157609    -0.81700
O203        O  0.41338359  0.51408918  0.77504422    -0.83500
O204        O  0.26344421  0.35522057  0.62041358    -0.79100
O205        O  0.41103502  0.43716784  0.76207133    -0.90700
O206        O  0.40923283  0.49992735  0.59936178    -0.76700
O207        O  0.31393170  0.44018196  0.62303479    -0.86200
O208        O  0.36945205  0.50243944  0.68225716    -0.85900
O209        O  0.27735484  0.40900858  0.70867994    -0.72600
O210        O  0.33120764  0.46232418  0.76315700    -0.84700
Zr211      Zr  0.22433360  0.54350198  0.69551242     2.26400
Zr212      Zr  0.23428971  0.42919989  0.63837700     2.06300
Zr213      Zr  0.34198917  0.54213788  0.74892311     2.10000
Zr214      Zr  0.32967961  0.51884898  0.61095064     1.78800
O215        O  0.33959569  0.55819639  0.83349395    -0.93600
O216        O  0.32841707  0.47871493  0.53457017    -0.41400
O217        O  0.30172265  0.56052271  0.67785112    -0.78000
O218        O  0.25007676  0.50729988  0.62465583    -0.96700
O219        O  0.20965468  0.46539339  0.70844759    -0.90000
O220        O  0.26580106  0.52656895  0.76614021    -0.92800
C221        C  0.43595129  0.46880178  0.61408427     1.00900
C222        C  0.42909380  0.47432197  0.78076636     1.13900
C223        C  0.28931940  0.33019199  0.64511212     1.04600
O224        O  0.22515107  0.42912677  0.55271787    -0.95000
O225        O  0.15539892  0.45634887  0.62414247    -0.90700
O226        O  0.15020310  0.52575646  0.66062876    -0.83900
C227        C  0.13284330  0.49195242  0.63636055     1.11300
O228        O  0.27377316  0.37622700  0.81442080    -0.97000
Zr229      Zr  0.25303838  0.44742928  0.77754437     1.88900
O230        O  0.17540798  0.54517992  0.76226629    -0.73600
O231        O  0.18111003  0.36575560  0.64759145    -0.52900
O232        O  0.18956067  0.39367500  0.78134597    -0.97500
O233        O  0.28180772  0.45810900  0.85866082    -0.54800
O234        O  0.19148818  0.48797397  0.81206856    -0.74100
C235        C  0.16889553  0.52278790  0.79991510     0.98200
O236        O  0.18769127  0.60161240  0.64850931    -0.62900
O237        O  0.40774347  0.59318167  0.74608250    -0.57700
O238        O  0.24146836  0.61813310  0.72802361    -0.94400
O239        O  0.31634023  0.62001042  0.74782128    -0.92900
O240        O  0.36952670  0.59106425  0.60008023    -0.93200
O241        O  0.29676159  0.56860238  0.55199475    -0.92000
C242        C  0.27830246  0.63889671  0.74055228     1.17100
H243        H  0.40099114  0.51108236  0.68236261     0.33000
H244        H  0.23216349  0.51701297  0.59777695     0.43900
H245        H  0.25750043  0.54524040  0.79285722     0.37400
H246        H  0.26997670  0.37801830  0.71661271     0.33900
H247        H  0.29676464  0.47998417  0.52255576     0.25700
H248        H  0.16022335  0.36640523  0.61962835     0.31600
H249        H  0.19678558  0.36797874  0.75975653     0.37500
H250        H  0.38997415  0.59483252  0.62828290     0.32000
H251        H  0.40773102  0.60392015  0.71328882     0.30800
H252        H  0.32484901  0.58809240  0.83629889     0.32500
H253        H  0.25629748  0.44928989  0.87836392     0.31500
H254        H  0.27600733  0.58813696  0.56969460     0.35500
H255        H  0.16991852  0.61964845  0.67097227     0.28200
H256        H  0.40969323  0.34281501  0.67878459     0.32500
H257        H  0.30709775  0.37588186  0.81352975     0.35300
H258        H  0.40104526  0.62043865  0.76573465     0.27900
H259        H  0.21227933  0.62260452  0.63935208     0.40800
H260        H  0.19422693  0.41681521  0.54593191     0.30800
H261        H  0.34536867  0.49911543  0.51384372     0.38500
H262        H  0.28531941  0.49155090  0.86350123     0.30300
H263        H  0.16267325  0.37521135  0.67444673     0.30400
H264        H  0.39022350  0.33848760  0.72950132     0.30600
Zr265      Zr  0.85540298  0.55288745  0.51540099     2.17500
O266        O  0.89989343  0.61589757  0.48488613    -0.51700
O267        O  0.92397224  0.54251897  0.56699226    -0.74900
O268        O  0.82798194  0.63190287  0.53832228    -0.81700
O269        O  0.90057313  0.45744071  0.43228467    -0.83500
O270        O  0.75932037  0.62461010  0.57166494    -0.79100
O271        O  0.90918522  0.53331611  0.45097527    -0.90700
O272        O  0.91185382  0.48107670  0.61251327    -0.76700
O273        O  0.81796049  0.53613497  0.58768552    -0.86200
O274        O  0.86668108  0.47379244  0.52956983    -0.85900
O275        O  0.77500444  0.56490367  0.50255602    -0.72600
O276        O  0.82275123  0.50955190  0.44867580    -0.84700
Zr277      Zr  0.71876620  0.42778737  0.52165298     2.26400
Zr278      Zr  0.73726059  0.54535362  0.57436414     2.06300
Zr279      Zr  0.83248011  0.43030023  0.46575748     2.10000
Zr280      Zr  0.83206643  0.45758672  0.60174078     1.78800
O281        O  0.83664698  0.40845409  0.38261118    -0.93600
O282        O  0.83775349  0.49139061  0.68129509    -0.41400
O283        O  0.79711767  0.41253000  0.53760170    -0.78000
O284        O  0.75145516  0.46764063  0.59052458    -0.96700
O285        O  0.70573781  0.50586195  0.50651062    -0.90000
O286        O  0.75540679  0.44504087  0.45046931    -0.92800
C287        C  0.93793953  0.51216317  0.59623743     1.00900
C288        C  0.92102080  0.49597861  0.42922166     1.13900
C289        C  0.79171504  0.64872335  0.55624322     1.04600
O290        O  0.75132056  0.54981897  0.65939029    -0.95000
O291        O  0.65662185  0.51982009  0.58425408    -0.90700
O292        O  0.64737034  0.44663425  0.55693379    -0.83900
C293        C  0.63209146  0.48300490  0.57627516     1.11300
O294        O  0.76832173  0.58867391  0.39114424    -0.97000
Zr295      Zr  0.74418010  0.52356026  0.43657963     1.88900
O296        O  0.66462028  0.42380913  0.45569452    -0.73600
O297        O  0.67720244  0.59800797  0.59282606    -0.52900
O298        O  0.68956080  0.58442473  0.43328067    -0.97500
O299        O  0.75696362  0.50472343  0.35396889    -0.54800
O300        O  0.67573233  0.48537554  0.40976286    -0.74100
C301        C  0.65497844  0.44854034  0.42013638     0.98200
O302        O  0.68966676  0.36876076  0.57225570    -0.62900
O303        O  0.88775971  0.37548120  0.49298749    -0.57700
O304        O  0.73076088  0.35306962  0.48547341    -0.94400
O305        O  0.79735230  0.35608809  0.44868199    -0.92900
O306        O  0.87194787  0.38581488  0.60481398    -0.93200
O307        O  0.80749783  0.40614229  0.66251238    -0.92000
C308        C  0.76105051  0.33518275  0.46009284     1.17100
H309        H  0.89808658  0.46605685  0.52934674     0.33000
H310        H  0.73592702  0.45869563  0.61835481     0.43900
H311        H  0.74432807  0.42614374  0.42388873     0.37400
H312        H  0.76865018  0.59523418  0.49234677     0.33900
H313        H  0.84525388  0.52408558  0.67709118     0.25700
H314        H  0.68918489  0.61838585  0.61891430     0.31600
H315        H  0.68620817  0.59446410  0.46656025     0.37500
H316        H  0.89774140  0.39178333  0.62737004     0.32000
H317        H  0.89005477  0.35340074  0.46621537     0.30800
H318        H  0.83162180  0.43704333  0.36549964     0.32500
H319        H  0.73034546  0.51646418  0.33648526     0.31500
H320        H  0.78428081  0.38598052  0.64637707     0.35500
H321        H  0.66692354  0.35125825  0.55241974     0.28200
H322        H  0.90998374  0.63497390  0.51274255     0.32500
H323        H  0.79296897  0.60372347  0.41061292     0.35300
H324        H  0.91711550  0.39224264  0.49431211     0.27900
H325        H  0.71486725  0.34755645  0.57704216     0.40800
H326        H  0.72101392  0.54752285  0.67278768     0.30800
H327        H  0.80662975  0.49103268  0.69276970     0.38500
H328        H  0.75328638  0.47110711  0.35115296     0.30300
H329        H  0.67366932  0.61779213  0.56516989     0.30400
H330        H  0.87829796  0.63477353  0.46697631     0.30600
Zr331      Zr  0.65653874  0.92798627  0.51320918     2.17500
O332        O  0.60852177  0.86444053  0.48347333    -0.51700
O333        O  0.59089780  0.93981878  0.56446998    -0.74900
O334        O  0.68697904  0.85014877  0.53588845    -0.81700
O335        O  0.60240445  0.02082881  0.43470586    -0.83500
O336        O  0.75544402  0.86201036  0.57301542    -0.79100
O337        O  0.59828200  0.94471166  0.44915860    -0.90700
O338        O  0.60163634  0.00664565  0.60545089    -0.76700
O339        O  0.69615021  0.94969718  0.58644119    -0.86200
O340        O  0.64495271  0.00783019  0.52543839    -0.85900
O341        O  0.73665185  0.91704850  0.50207318    -0.72600
O342        O  0.68587546  0.96708902  0.44631444    -0.84700
Zr343      Zr  0.79117344  0.05547602  0.52085040     2.26400
Zr344      Zr  0.77629893  0.94153666  0.57512075     2.06300
Zr345      Zr  0.67577842  0.04736247  0.46144195     2.10000
Zr346      Zr  0.68152953  0.02882370  0.59871085     1.78800
O347        O  0.66937932  0.05475818  0.37605448    -0.93600
O348        O  0.67873289  0.99433564  0.67603748    -0.41400
O349        O  0.71311396  0.07014069  0.53447994    -0.78000
O350        O  0.76186166  0.01989670  0.58954669    -0.96700
O351        O  0.80484583  0.97695931  0.50753829    -0.90000
O352        O  0.75260757  0.03355152  0.44871535    -0.92800
C353        C  0.57603306  0.97293434  0.59027577     1.00900
C354        C  0.58292403  0.98164507  0.43027848     1.13900
C355        C  0.72407428  0.83531390  0.55598614     1.04600
O356        O  0.76704637  0.94586402  0.66010711    -0.95000
O357        O  0.85646790  0.96842717  0.58699087    -0.90700
O358        O  0.86424194  0.03898057  0.55679920    -0.83900
C359        C  0.88043789  0.00435640  0.57778974     1.11300
O360        O  0.74520945  0.88380125  0.39267525    -0.97000
Zr361      Zr  0.76464030  0.95465110  0.43614829     1.88900
O362        O  0.84346683  0.05509886  0.45664021    -0.73600
O363        O  0.83739684  0.89092646  0.59765051    -0.52900
O364        O  0.82204512  0.89644266  0.43553807    -0.97500
O365        O  0.74053254  0.96803834  0.35475589    -0.54800
O366        O  0.83035679  0.99379099  0.40752671    -0.74100
C367        C  0.85212046  0.03053110  0.41991715     0.98200
O368        O  0.82145825  0.11882388  0.57055574    -0.62900
O369        O  0.62329514  0.10808186  0.47834346    -0.57700
O370        O  0.77738944  0.12730144  0.48334491    -0.94400
O371        O  0.71031156  0.12013270  0.44257805    -0.92900
O372        O  0.64430873  0.10200876  0.60426302    -0.93200
O373        O  0.70749260  0.08080349  0.66292078    -0.92000
C374        C  0.74656049  0.14243403  0.45542318     1.17100
H375        H  0.61343169  0.01512809  0.52418209     0.33000
H376        H  0.77856923  0.03072354  0.61760850     0.43900
H377        H  0.76243355  0.05097236  0.42233619     0.37400
H378        H  0.74335483  0.88627419  0.49249839     0.33900
H379        H  0.65541584  0.01145198  0.69277452     0.25700
H380        H  0.82677787  0.87339522  0.62470046     0.31600
H381        H  0.84461610  0.90663409  0.46032279     0.37500
H382        H  0.61605837  0.09568387  0.62074387     0.32000
H383        H  0.59999795  0.09385133  0.49775082     0.30800
H384        H  0.65654812  0.02517116  0.36374261     0.32500
H385        H  0.70872943  0.95709357  0.35210462     0.31500
H386        H  0.73620966  0.09425040  0.65238058     0.35500
H387        H  0.79655022  0.14066814  0.57258319     0.28200
H388        H  0.60277804  0.84533003  0.51102623     0.32500
H389        H  0.71244332  0.87927235  0.39691242     0.35300
H390        H  0.64016202  0.12935073  0.50053347     0.27900
H391        H  0.82413855  0.10638278  0.60266668     0.40800
H392        H  0.74777506  0.91895036  0.66678275     0.30800
H393        H  0.66484315  0.96361546  0.67012806     0.38500
H394        H  0.73866398  0.00161151  0.35289859     0.30300
H395        H  0.83979023  0.86828385  0.57137515     0.30400
H396        H  0.62761361  0.84602538  0.46272271     0.30600
Zr397      Zr  0.06914428  0.33405169  0.21267698     2.17500
O398        O  0.13130188  0.38198091  0.24566780    -0.51700
O399        O  0.06003723  0.39877898  0.15811764    -0.74900
O400        O  0.14636974  0.30594870  0.19255637    -0.81700
O401        O  0.97464223  0.38133118  0.28995587    -0.83500
O402        O  0.13926253  0.24340668  0.14306858    -0.79100
O403        O  0.04955906  0.39062803  0.27690768    -0.90700
O404        O  0.99734749  0.38460158  0.11110388    -0.76700
O405        O  0.05372822  0.29250797  0.13954753    -0.86200
O406        O  0.99087484  0.34328701  0.19331407    -0.85900
O407        O  0.08304254  0.25370075  0.22584412    -0.72600
O408        O  0.02659431  0.30314803  0.27615584    -0.84700
Zr409      Zr  0.94959901  0.19290012  0.19729625     2.26400
Zr410      Zr  0.06523667  0.21220950  0.15280553     2.06300
Zr411      Zr  0.94814558  0.31064710  0.25392914     2.10000
Zr412      Zr  0.97635930  0.30408417  0.11971923     1.78800
O413        O  0.92715758  0.32157407  0.33574888    -0.93600
O414        O  0.01550211  0.30704852  0.04558904    -0.41400
O415        O  0.93211846  0.27090241  0.18046964    -0.78000
O416        O  0.98829967  0.22386632  0.13175734    -0.96700
O417        O  0.02674045  0.18193520  0.21753428    -0.90000
O418        O  0.96427503  0.23362834  0.27019532    -0.92800
C419        C  0.02934619  0.41123342  0.12783647     1.00900
C420        C  0.01235292  0.40275142  0.29626297     1.13900
C421        C  0.16294604  0.27332584  0.16682892     1.04600
O422        O  0.07287718  0.20852143  0.06756838    -0.95000
O423        O  0.04040374  0.13247529  0.13069656    -0.90700
O424        O  0.96964590  0.12268186  0.15633332    -0.83900
C425        C  0.00438480  0.10759940  0.13562173     1.11300
O426        O  0.11385883  0.24500411  0.32925095    -0.97000
Zr427      Zr  0.04200635  0.22455746  0.28921643     1.88900
O428        O  0.94543941  0.14051806  0.26227719    -0.73600
O429        O  0.12879690  0.16427738  0.17266634    -0.52900
O430        O  0.09168450  0.16198759  0.30800579    -0.97500
O431        O  0.02845053  0.25799687  0.36672350    -0.54800
O432        O  0.99973725  0.16000366  0.31753869    -0.74100
C433        C  0.96569459  0.13560025  0.30258290     0.98200
O434        O  0.89182933  0.15345380  0.14726564    -0.62900
O435        O  0.89293412  0.36503481  0.22562055    -0.57700
O436        O  0.87481741  0.20615156  0.22469462    -0.94400
O437        O  0.87463966  0.27424917  0.26360664    -0.92900
O438        O  0.90516979  0.34211931  0.10524490    -0.93200
O439        O  0.93187992  0.26990144  0.05362528    -0.92000
C440        C  0.85505834  0.23695519  0.24873519     1.17100
H441        H  0.98315667  0.37509800  0.19316346     0.33000
H442        H  0.98009666  0.20645519  0.10325802     0.43900
H443        H  0.94528008  0.22361116  0.29509439     0.37400
H444        H  0.11383261  0.24815027  0.23561019     0.33900
H445        H  0.99908217  0.32993009  0.02690874     0.25700
H446        H  0.13420220  0.14631634  0.14345846     0.31600
H447        H  0.10899135  0.15697604  0.27918966     0.37500
H448        H  0.88213883  0.32249350  0.11971982     0.32000
H449        H  0.89761929  0.39267441  0.24614462     0.30800
H450        H  0.91933639  0.29068573  0.34672578     0.32500
H451        H  0.03625563  0.23389548  0.38925411     0.31500
H452        H  0.90907907  0.25023510  0.06841757     0.35500
H453        H  0.87461824  0.13400180  0.16870999     0.28200
H454        H  0.14913195  0.39112042  0.21842114     0.32500
H455        H  0.11930124  0.27742900  0.32164644     0.35300
H456        H  0.90299192  0.37439549  0.19434380     0.27900
H457        H  0.87061400  0.17730156  0.13730238     0.40800
H458        H  0.08601536  0.17833032  0.06106873     0.30800
H459        H  0.04509405  0.32200337  0.05364151     0.38500
H460        H  0.99532724  0.26057376  0.36779460     0.30300
H461        H  0.11678729  0.14196334  0.19490614     0.30400
H462        H  0.15092701  0.36138499  0.26392657     0.30600
Zr463      Zr  0.43760541  0.13416089  0.20660522     2.17500
O464        O  0.37430641  0.08804169  0.23294721    -0.51700
O465        O  0.44190026  0.06289949  0.15597367    -0.74900
O466        O  0.36096860  0.16868372  0.18996078    -0.81700
O467        O  0.53237429  0.08050130  0.28223242    -0.83500
O468        O  0.37066453  0.23621992  0.15280318    -0.79100
O469        O  0.45583948  0.08263491  0.27433243    -0.90700
O470        O  0.49827002  0.07307385  0.10491165    -0.76700
O471        O  0.45049695  0.17183524  0.13327832    -0.86200
O472        O  0.51336143  0.11822352  0.18695621    -0.85900
O473        O  0.43359824  0.21629823  0.22053793    -0.72600
O474        O  0.48656265  0.16377371  0.27052447    -0.84700
Zr475      Zr  0.57076720  0.26170842  0.19015712     2.26400
Zr476      Zr  0.44955750  0.25399327  0.14760779     2.06300
Zr477      Zr  0.56235315  0.14802939  0.24844140     2.10000
Zr478      Zr  0.52495207  0.15219227  0.11288683     1.78800
O479        O  0.58262700  0.15138759  0.33246363    -0.93600
O480        O  0.47961034  0.15578418  0.03963989    -0.41400
O481        O  0.57700145  0.18116834  0.17424268    -0.78000
O482        O  0.52295884  0.23390641  0.12477620    -0.96700
O483        O  0.49687353  0.28179322  0.21138043    -0.90000
O484        O  0.55673269  0.22743991  0.26355869    -0.92800
C485        C  0.46923571  0.04749513  0.12489958     1.00900
C486        C  0.49298670  0.06555646  0.29126120     1.13900
C487        C  0.34564848  0.20559392  0.17078917     1.04600
O488        O  0.43933117  0.24781639  0.06209910    -0.95000
O489        O  0.48185685  0.33255641  0.13539665    -0.90700
O490        O  0.55685948  0.33471790  0.15427517    -0.83900
C491        C  0.52074948  0.35361146  0.13914573     1.11300
O492        O  0.41947758  0.23351376  0.33552393    -0.97000
Zr493      Zr  0.48175565  0.24461847  0.28291051     1.88900
O494        O  0.58135742  0.31928246  0.25243516    -0.73600
O495        O  0.39263146  0.31290424  0.14484810    -0.52900
O496        O  0.42750293  0.30507760  0.29266724    -0.97500
O497        O  0.51251414  0.22521122  0.36047433    -0.54800
O498        O  0.52399762  0.31328908  0.30244810    -0.74100
C499        C  0.55977496  0.33287888  0.28829337     0.98200
O500        O  0.62819814  0.28675193  0.13647752    -0.62900
O501        O  0.61179178  0.08547891  0.22874942    -0.57700
O502        O  0.64516205  0.24171515  0.22068384    -0.94400
O503        O  0.64075085  0.17243125  0.25455104    -0.92900
O504        O  0.58118568  0.09800051  0.08836144    -0.93200
O505        O  0.57953624  0.18052669  0.05768237    -0.92000
C506        C  0.66277855  0.20791592  0.24207742     1.17100
H507        H  0.51923242  0.08604327  0.18693775     0.33000
H508        H  0.53058977  0.24932284  0.09629125     0.43900
H509        H  0.57814902  0.23751659  0.28828448     0.37400
H510        H  0.40502105  0.22520414  0.23235102     0.33900
H511        H  0.49131494  0.13118008  0.01917778     0.25700
H512        H  0.39655742  0.32856013  0.11465475     0.31600
H513        H  0.42852168  0.32226073  0.26307018     0.37500
H514        H  0.59972153  0.09282451  0.11735895     0.32000
H515        H  0.61657425  0.06904505  0.25854657     0.30800
H516        H  0.60945645  0.13203848  0.33574469     0.32500
H517        H  0.49747542  0.19586068  0.36781185     0.31500
H518        H  0.56815453  0.16977527  0.02602197     0.35500
H519        H  0.64988464  0.30575702  0.15618133     0.28200
H520        H  0.35192536  0.08571395  0.20622631     0.32500
H521        H  0.40966970  0.20127696  0.32987364     0.35300
H522        H  0.59339958  0.06409028  0.20808824     0.27900
H523        H  0.64481378  0.25886877  0.12824997     0.40800
H524        H  0.44325609  0.27948533  0.05129906     0.30800
H525        H  0.44906290  0.14463171  0.04727684     0.38500
H526        H  0.49988798  0.24783353  0.38263133     0.30300
H527        H  0.40216381  0.33577943  0.16971534     0.30400
H528        H  0.36018585  0.10690224  0.25756291     0.30600
C529        C  0.22974506  0.24461984  0.21047007    -0.06200
C530        C  0.21208236  0.26345586  0.16875886    -0.00200
C531        C  0.23726388  0.25980798  0.12732061    -0.08800
C532        C  0.27901179  0.23752322  0.12912189    -0.06200
C533        C  0.29671674  0.21800148  0.17063161    -0.00300
C534        C  0.27154908  0.22200107  0.21227242    -0.08700
C535        C  0.28841272  0.20252772  0.25847511     0.61700
H536        H  0.20928820  0.24589358  0.24137156     0.12400
H537        H  0.29879097  0.23564981  0.09775335     0.12400
C538        C  0.22037656  0.28014206  0.08140847     0.61900
F539        F  0.33043477  0.22098382  0.27113297    -0.23300
F540        F  0.29110651  0.15567775  0.25337283    -0.20600
F541        F  0.25988765  0.21194784  0.29494385    -0.20300
F542        F  0.20927514  0.32522896  0.08937184    -0.20300
F543        F  0.18272212  0.25600993  0.06375102    -0.20700
F544        F  0.25271808  0.27899045  0.04735478    -0.23300
C545        C  0.78811935  0.18458234  0.24518426    -0.06200
C546        C  0.80615022  0.22838936  0.25758993    -0.00200
C547        C  0.77628970  0.26236990  0.27390467    -0.08800
C548        C  0.72960998  0.25293311  0.27057260    -0.06200
C549        C  0.71188835  0.21096879  0.25291684    -0.00300
C550        C  0.74151808  0.17513747  0.24247410    -0.08700
C551        C  0.72445497  0.12770088  0.22670829     0.61700
H552        H  0.81084913  0.15773048  0.23572045     0.12400
H553        H  0.70611844  0.27912875  0.28013142     0.12400
C554        C  0.79238395  0.30896527  0.29315348     0.61900
F555        F  0.75926860  0.09913150  0.21528951    -0.23300
F556        F  0.69603586  0.13046990  0.18721259    -0.20600
F557        F  0.70153372  0.10797893  0.26289481    -0.20300
F558        F  0.81151391  0.33338580  0.25761947    -0.20300
F559        F  0.82345986  0.30388427  0.33005118    -0.20700
F560        F  0.75741084  0.33435847  0.31034756    -0.23300
C561        C  0.54528555  0.96752398  0.35189497    -0.06200
C562        C  0.54116366  0.98196260  0.39908221    -0.00200
C563        C  0.50652991  0.01331455  0.40926086    -0.08800
C564        C  0.48393512  0.03574102  0.37187846    -0.06200
C565        C  0.49380793  0.02663300  0.32452254    -0.00300
C566        C  0.52150916  0.98873265  0.31458287    -0.08700
C567        C  0.53048516  0.97279551  0.26457327     0.61700
H568        H  0.57107647  0.94324743  0.34347988     0.12400
H569        H  0.46227872  0.06398144  0.38012962     0.12400
C570        C  0.49520845  0.02683708  0.45933552     0.61900
F571        F  0.52273251  0.92614474  0.26033349    -0.23300
F572        F  0.57497240  0.98235704  0.25479002    -0.20600
F573        F  0.50285375  0.99339643  0.23143892    -0.20300
F574        F  0.50654084  0.07238649  0.46789241    -0.20300
F575        F  0.51760760  0.00093575  0.49244409    -0.20700
F576        F  0.44938352  0.02054453  0.46492810    -0.23300
C577        C  0.91998565  0.07893577  0.41102480    -0.06200
C578        C  0.88857888  0.04774695  0.38964644    -0.00200
C579        C  0.89013604  0.03882553  0.34010279    -0.08800
C580        C  0.91929345  0.06577718  0.31368910    -0.06200
C581        C  0.94610268  0.10140029  0.33454181    -0.00300
C582        C  0.94831731  0.10651878  0.38464107    -0.08700
C583        C  0.97742404  0.14291900  0.41074189     0.61700
H584        H  0.92014030  0.08371654  0.44900785     0.12400
H585        H  0.91943216  0.06093002  0.27571062     0.12400
C586        C  0.86003125  0.00312397  0.31416693     0.61900
F587        F  0.97384093  0.14128018  0.45923450    -0.23300
F588        F  0.96383763  0.18555403  0.39706496    -0.20600
F589        F  0.02231314  0.13693038  0.40103177    -0.20300
F590        F  0.81539596  0.01426201  0.31862591    -0.20300
F591        F  0.86766563  0.96055837  0.33252545    -0.20700
F592        F  0.86814442  0.00030951  0.26637392    -0.23300
C593        C  0.63445443  0.43048935  0.33811200    -0.06200
C594        C  0.62145769  0.43063890  0.38519641    -0.00200
C595        C  0.58234096  0.40639760  0.39753856    -0.08800
C596        C  0.56171667  0.37673765  0.36373677    -0.06200
C597        C  0.57829881  0.37164520  0.31785438    -0.00300
C598        C  0.61344469  0.40152216  0.30371769    -0.08700
C599        C  0.63036117  0.40255964  0.25368444     0.61700
H600        H  0.66409060  0.45025088  0.32921765     0.12400
H601        H  0.53337188  0.35599061  0.37446143     0.12400
C602        C  0.56151145  0.41008379  0.44557172     0.61900
F603        F  0.65865378  0.43992756  0.24724040    -0.23300
F604        F  0.59428830  0.40549614  0.22186161    -0.20600
F605        F  0.65443617  0.36373640  0.24393204    -0.20300
F606        F  0.58085965  0.44483869  0.47369282    -0.20300
F607        F  0.56611393  0.36920789  0.46843276    -0.20700
F608        F  0.51608779  0.41906357  0.43977571    -0.23300
C609        C  0.97910911  0.47739955  0.31513799    -0.06200
C610        C  0.00942825  0.44344496  0.32908612    -0.00200
C611        C  0.02049398  0.44021733  0.37789070    -0.08800
C612        C  0.99590845  0.46580085  0.41106154    -0.06200
C613        C  0.96011141  0.49397164  0.39707967    -0.00300
C614        C  0.95390447  0.50233142  0.34825852    -0.08700
C615        C  0.91803667  0.53471269  0.33114103     0.61700
H616        H  0.97101468  0.48006132  0.27776268     0.12400
H617        H  0.00037049  0.45903099  0.44831864     0.12400
C618        C  0.05339312  0.40502006  0.39517815     0.61900
F619        F  0.91776831  0.53898120  0.28259044    -0.23300
F620        F  0.92635617  0.57745138  0.35176946    -0.20600
F621        F  0.87581952  0.51907696  0.34331801    -0.20300
F622        F  0.09209349  0.40697544  0.36940594    -0.20300
F623        F  0.03376922  0.36190016  0.38981488    -0.20700
F624        F  0.06570692  0.41255977  0.44232919    -0.23300
C625        C  0.74594954  0.70931533  0.52047996    -0.06200
C626        C  0.78049526  0.69819036  0.55339201    -0.00200
C627        C  0.79297844  0.73064441  0.58925688    -0.08800
C628        C  0.77126031  0.77324067  0.59037878    -0.06200
C629        C  0.73702186  0.78528505  0.55686193    -0.00300
C630        C  0.72404399  0.75195005  0.52139127    -0.08700
C631        C  0.68729996  0.76079987  0.48460788     0.61700
H632        H  0.73520971  0.68326142  0.49447099     0.12400
H633        H  0.78128089  0.79783965  0.61805738     0.12400
C634        C  0.82834444  0.71967752  0.62689700     0.61900
F635        F  0.67901346  0.72346222  0.45442036    -0.23300
F636        F  0.69987223  0.79734729  0.45768812    -0.20600
F637        F  0.64770413  0.77010742  0.50687304    -0.20300
F638        F  0.86728240  0.70578050  0.60581930    -0.20300
F639        F  0.81233076  0.68495128  0.65436901    -0.20700
F640        F  0.83923799  0.75716392  0.65610569    -0.23300
C641        C  0.71204145  0.21558849  0.43535145    -0.06200
C642        C  0.75142966  0.19015885  0.44015013    -0.00200
C643        C  0.79385669  0.21298329  0.43842186    -0.08800
C644        C  0.79543164  0.26065630  0.44353869    -0.06200
C645        C  0.75590041  0.28619200  0.44584704    -0.00300
C646        C  0.71350013  0.26356159  0.43689255    -0.08700
C647        C  0.67003590  0.28908430  0.42827643     0.61700
H648        H  0.67965078  0.19778268  0.43379138     0.12400
H649        H  0.82813572  0.27786167  0.44693417     0.12400
C650        C  0.83796723  0.18888024  0.43115868     0.61900
F651        F  0.63529754  0.26002494  0.41159153    -0.23300
F652        F  0.67656335  0.32187710  0.39477175    -0.20600
F653        F  0.65643105  0.30960135  0.46959238    -0.20300
F654        F  0.83131086  0.14417552  0.41532052    -0.20300
F655        F  0.86333152  0.18973137  0.47303021    -0.20700
F656        F  0.86208894  0.21119580  0.39735016    -0.23300
C657        C  0.55064631  0.50173372  0.55764536    -0.06200
C658        C  0.58246315  0.48179188  0.58830141    -0.00200
C659        C  0.56571365  0.45656353  0.62634105    -0.08800
C660        C  0.51831566  0.45147035  0.63180646    -0.06200
C661        C  0.48600613  0.47194228  0.60167457    -0.00300
C662        C  0.50312325  0.49737147  0.56330248    -0.08700
C663        C  0.47188744  0.51961583  0.52749611     0.61700
H664        H  0.56352067  0.52065402  0.52848756     0.12400
H665        H  0.50619139  0.43209191  0.66095845     0.12400
C666        C  0.59818895  0.43642814  0.66222599     0.61900
F667        F  0.49465416  0.53392642  0.48849800    -0.23300
F668        F  0.45266953  0.55746258  0.54804989    -0.20600
F669        F  0.43843913  0.48884936  0.51152004    -0.20300
F670        F  0.62548811  0.47091391  0.68256594    -0.20300
F671        F  0.62480044  0.40469731  0.64037537    -0.20700
F672        F  0.57586880  0.41493222  0.69787554    -0.23300
C673        C  0.05299154  0.49511625  0.66152507    -0.06200
C674        C  0.08305047  0.49486879  0.62417213    -0.00200
C675        C  0.06548192  0.50341358  0.57810999    -0.08800
C676        C  0.01852879  0.51098482  0.57101937    -0.06200
C677        C  0.98804824  0.50953985  0.60820086    -0.00300
C678        C  0.00593457  0.50135054  0.65442143    -0.08700
C679        C  0.97572469  0.49970279  0.69650918     0.61700
H680        H  0.06684829  0.48979006  0.69675831     0.12400
H681        H  0.00495491  0.51654181  0.53572538     0.12400
C682        C  0.09635414  0.50443938  0.53663534     0.61900
F683        F  0.00045936  0.49925527  0.73880713    -0.23300
F684        F  0.94886414  0.46054976  0.69351187    -0.20600
F685        F  0.94874564  0.53762177  0.69742620    -0.20300
F686        F  0.11384326  0.46157688  0.52940590    -0.20300
F687        F  0.13140134  0.53563879  0.54577305    -0.20700
F688        F  0.07376643  0.51671896  0.49547488    -0.23300
C689        C  0.95935597  0.01746681  0.55222900    -0.06200
C690        C  0.93061694  0.00615335  0.58900650    -0.00200
C691        C  0.95038304  0.00022412  0.63477631    -0.08800
C692        C  0.99782125  0.00604208  0.64184240    -0.06200
C693        C  0.02655658  0.01646761  0.60478564    -0.00300
C694        C  0.00683595  0.02208618  0.55904867    -0.08700
C695        C  0.03563077  0.03436623  0.51784279     0.61700
H696        H  0.94410463  0.02231193  0.51750271     0.12400
H697        H  0.01316527  0.00135227  0.67656311     0.12400
C698        C  0.92161854  0.98867502  0.67624681     0.61900
F699        F  0.00968368  0.04212428  0.47742768    -0.23300
F700        F  0.06433362  0.99916550  0.50778893    -0.20600
F701        F  0.06077196  0.07365191  0.52912570    -0.20300
F702        F  0.90017106  0.94677586  0.66798880    -0.20300
F703        F  0.88968043  0.02181230  0.68232800    -0.20700
F704        F  0.94715993  0.98627516  0.71789482    -0.23300
C705        C  0.44859909  0.94430207  0.60715563    -0.06200
C706        C  0.43103151  0.98730266  0.61963035    -0.00200
C707        C  0.46178149  0.02544132  0.62119738    -0.08800
C708        C  0.50806083  0.01852790  0.61205385    -0.06200
C709        C  0.52578708  0.97529198  0.60059047    -0.00300
C710        C  0.49462870  0.93753032  0.59714345    -0.08700
C711        C  0.50912961  0.88987351  0.58291331     0.61700
H712        H  0.42542343  0.91528075  0.60473039     0.12400
H713        H  0.53103354  0.04771660  0.61333002     0.12400
C714        C  0.44674117  0.07337018  0.63353858     0.61900
F715        F  0.47459024  0.85770405  0.58621376    -0.23300
F716        F  0.54459053  0.87677641  0.61211593    -0.20600
F717        F  0.52209731  0.88944196  0.53652817    -0.20300
F718        F  0.42907647  0.07408350  0.67802165    -0.20300
F719        F  0.41459394  0.08695314  0.60062944    -0.20700
F720        F  0.48207061  0.10504485  0.63383105    -0.23300
C721        C  0.26544378  0.26552696  0.69364052    -0.06200
C722        C  0.27378466  0.28172459  0.64839778    -0.00200
C723        C  0.25827898  0.25514034  0.60833901    -0.08800
C724        C  0.23648374  0.21272488  0.61512119    -0.06200
C725        C  0.22898830  0.19586333  0.66030736    -0.00300
C726        C  0.24297221  0.22325697  0.70038918    -0.08700
C727        C  0.23467247  0.20793236  0.75008818     0.61700
H728        H  0.27565086  0.28704927  0.72391398     0.12400
H729        H  0.22633967  0.19127019  0.58475834     0.12400
C730        C  0.26553744  0.27074844  0.55841623     0.61900
F731        F  0.24921998  0.24046224  0.78382177    -0.23300
F732        F  0.25745740  0.16826485  0.75881052    -0.20600
F733        F  0.18899235  0.20029470  0.75507811    -0.20300
F734        F  0.30939003  0.28680919  0.55450395    -0.20300
F735        F  0.23595877  0.30504198  0.54742860    -0.20700
F736        F  0.25823009  0.23542988  0.52550121    -0.23300
C737        C  0.28308734  0.75772246  0.69795833    -0.06200
C738        C  0.25475071  0.78003308  0.72942983    -0.00200
C739        C  0.23850255  0.75630807  0.76879606    -0.08800
C740        C  0.24925669  0.71014162  0.77328419    -0.06200
C741        C  0.27684399  0.68837786  0.74110943    -0.00300
C742        C  0.29508042  0.71245656  0.70358465    -0.08700
C743        C  0.32597176  0.68991142  0.66870768     0.61700
H744        H  0.29556114  0.77591072  0.66813277     0.12400
H745        H  0.23538873  0.69022899  0.80126734     0.12400
C746        C  0.21110734  0.77920309  0.80645914     0.61900
F747        F  0.33958359  0.71953981  0.63443224    -0.23300
F748        F  0.30396115  0.65296918  0.64624414    -0.20600
F749        F  0.36419005  0.67535743  0.69255921    -0.20300
F750        F  0.16926195  0.79051521  0.78782181    -0.20300
F751        F  0.23395152  0.81810343  0.82362792    -0.20700
F752        F  0.20418362  0.75090703  0.84404047    -0.23300
C753        C  0.44672041  0.91810364  0.09752769    -0.06200
C754        C  0.49113902  0.90163531  0.09366823    -0.00200
C755        C  0.52740539  0.93367454  0.10264407    -0.08800
C756        C  0.51774783  0.97998495  0.11300010    -0.06200
C757        C  0.47351480  0.99656485  0.11531759    -0.00300
C758        C  0.43723322  0.96450786  0.10853932    -0.08700
C759        C  0.38866821  0.97902197  0.11178940     0.61700
H760        H  0.41882463  0.89402947  0.09170285     0.12400
H761        H  0.54541754  0.00420311  0.11970282     0.12400
C762        C  0.57637300  0.92011584  0.10020985     0.61900
F763        F  0.35851225  0.94339747  0.10033115    -0.23300
F764        F  0.38027644  0.01396293  0.08100404    -0.20600
F765        F  0.38081152  0.99387290  0.15736327    -0.20300
F766        F  0.58418134  0.90201407  0.05584402    -0.20300
F767        F  0.58603043  0.88832862  0.13415531    -0.20700
F768        F  0.60585749  0.95699169  0.10822889    -0.23300
C769        C  0.54902241  0.46679093  0.07843605    -0.06200
C770        C  0.53580896  0.50005056  0.11185117    -0.00200
C771        C  0.51887205  0.48406540  0.15519796    -0.08800
C772        C  0.51281552  0.43637236  0.16162489    -0.06200
C773        C  0.52460618  0.40354173  0.12748627    -0.00300
C774        C  0.54404965  0.41911631  0.08561849    -0.08700
C775        C  0.55954459  0.38522356  0.04863100     0.61700
H776        H  0.56301182  0.47840813  0.04599240     0.12400
H777        H  0.49940273  0.42418525  0.19417743     0.12400
C778        C  0.50894226  0.51672117  0.19578777     0.61900
F779        F  0.57326958  0.40662352  0.00839120    -0.23300
F780        F  0.52464989  0.35492173  0.03572417    -0.20600
F781        F  0.59548157  0.36124389  0.06692044    -0.20300
F782        F  0.46891537  0.53860139  0.18644243    -0.20300
F783        F  0.54373209  0.54871530  0.20221845    -0.20700
F784        F  0.50494913  0.49408442  0.23778824    -0.23300
C785        C  0.52777231  0.52622514  0.84756925    -0.06200
C786        C  0.51484157  0.51609456  0.89328366    -0.00200
C787        C  0.48509104  0.47801748  0.89890183    -0.08800
C788        C  0.46255436  0.45760922  0.85887779    -0.06200
C789        C  0.46921180  0.47397175  0.81360546    -0.00300
C790        C  0.50550680  0.50552699  0.80752769    -0.08700
C791        C  0.51881894  0.52143683  0.75943564     0.61700
H792        H  0.55106420  0.55462749  0.84279755     0.12400
H793        H  0.43551876  0.43288617  0.86382920     0.12400
C794        C  0.47287588  0.46079306  0.94681134     0.61900
F795        F  0.56447998  0.51512669  0.75449712    -0.23300
F796        F  0.50992901  0.56734998  0.75543849    -0.20600
F797        F  0.49596363  0.49750993  0.72311481    -0.20300
F798        F  0.42776711  0.46836253  0.95410246    -0.20300
F799        F  0.49834814  0.48197811  0.98306555    -0.20700
F800        F  0.48030891  0.41438452  0.94822677    -0.23300
C801        C  0.42928713  0.88733238  0.88385947    -0.06200
C802        C  0.42541164  0.83986835  0.87745599    -0.00200
C803        C  0.39879439  0.82079065  0.83926370    -0.08800
C804        C  0.37696387  0.85024828  0.80819846    -0.06200
C805        C  0.37983507  0.89790113  0.81479217    -0.00300
C806        C  0.40685259  0.91702439  0.85304382    -0.08700
C807        C  0.41233088  0.96823026  0.86160257     0.61700
H808        H  0.44954881  0.90092860  0.91369849     0.12400
H809        H  0.35561331  0.83600077  0.77951428     0.12400
C810        C  0.39183755  0.76949352  0.83252721     0.61900
F811        F  0.44804483  0.97891372  0.89293621    -0.23300
F812        F  0.37356248  0.98530079  0.88043101    -0.20600
F813        F  0.42068524  0.98948751  0.81966630    -0.20300
F814        F  0.37325283  0.75174364  0.87234810    -0.20300
F815        F  0.43265703  0.74931757  0.82492516    -0.20700
F816        F  0.36308261  0.75824548  0.79431528    -0.23300
C817        C  0.05130405  0.52754912  0.07126076    -0.06200
C818        C  0.01531735  0.55419838  0.08798199    -0.00200
C819        C  0.98485154  0.53243118  0.11878937    -0.08800
C820        C  0.99169450  0.48636952  0.13127834    -0.06200
C821        C  0.02737871  0.46053095  0.11445133    -0.00300
C822        C  0.05754233  0.48130900  0.08362117    -0.08700
C823        C  0.09524019  0.45393438  0.06282959     0.61700
H824        H  0.07464715  0.54294524  0.04751507     0.12400
H825        H  0.96852134  0.46954961  0.15427020     0.12400
C826        C  0.94464431  0.55668446  0.13834010     0.61900
F827        F  0.12001103  0.47913464  0.03177853    -0.23300
F828        F  0.07721931  0.41587749  0.03854114    -0.20600
F829        F  0.12420382  0.43992081  0.09862491    -0.20300
F830        F  0.91453429  0.56580912  0.10172378    -0.20300
F831        F  0.95862540  0.59686250  0.16149223    -0.20700
F832        F  0.92206284  0.53042706  0.17033379    -0.23300
C833        C  0.03115872  0.98259092  0.09821548    -0.06200
C834        C  0.98774047  0.96201437  0.09399375    -0.00200
C835        C  0.95011552  0.99064174  0.09913629    -0.08800
C836        C  0.95754613  0.03758220  0.11127066    -0.06200
C837        C  0.00110302  0.05807754  0.11743571    -0.00300
C838        C  0.03868980  0.02981296  0.10887468    -0.08700
C839        C  0.08684879  0.04840025  0.11183398     0.61700
H840        H  0.05972643  0.96097686  0.09261972     0.12400
H841        H  0.92865910  0.05887590  0.11619962     0.12400
C842        C  0.90214656  0.97182814  0.09317832     0.61900
F843        F  0.11783792  0.01517094  0.10172479    -0.23300
F844        F  0.09678687  0.06519018  0.15701247    -0.20600
F845        F  0.09209048  0.08263933  0.07961902    -0.20300
F846        F  0.89600060  0.93599596  0.12331535    -0.20300
F847        F  0.89386982  0.95672035  0.04705291    -0.20700
F848        F  0.87064109  0.00454617  0.10325428    -0.23300
C849        C  0.09704929  0.56182359  0.80860682    -0.06200
C850        C  0.13325978  0.53981827  0.83083689    -0.00200
C851        C  0.13634899  0.53937576  0.88090454    -0.08800
C852        C  0.10588174  0.56532672  0.90635228    -0.06200
C853        C  0.07373621  0.59271288  0.88391901    -0.00300
C854        C  0.06701000  0.58847543  0.83397592    -0.08700
C855        C  0.03018626  0.61292685  0.80653454     0.61700
H856        H  0.09390843  0.55986655  0.77043038     0.12400
H857        H  0.10874516  0.56643925  0.94452923     0.12400
C858        C  0.17262227  0.51403610  0.90797502     0.61900
F859        F  0.03764024  0.65954071  0.81053564    -0.23300
F860        F  0.98846821  0.60140012  0.82363545    -0.20600
F861        F  0.02909741  0.60121650  0.75886078    -0.20300
F862        F  0.21470976  0.52941131  0.89528385    -0.20300
F863        F  0.16771523  0.46769844  0.89823010    -0.20700
F864        F  0.17013836  0.52067309  0.95635813    -0.23300
C865        C  0.04072571  0.96888135  0.89586688    -0.06200
C866        C  0.01017445  0.93225053  0.88477966    -0.00200
C867        C  0.99745707  0.92371349  0.83670690    -0.08800
C868        C  0.02032861  0.94741365  0.80142796    -0.06200
C869        C  0.05591646  0.97892249  0.81256900    -0.00300
C870        C  0.06408587  0.99215397  0.86051412    -0.08700
C871        C  0.10059776  0.02748552  0.87425821     0.61700
H872        H  0.05029512  0.97536991  0.93267896     0.12400
H873        H  0.01454283  0.93707511  0.76472070     0.12400
C874        C  0.96571066  0.88428839  0.82236262     0.61900
F875        F  0.10287659  0.03653132  0.92243097    -0.23300
F876        F  0.09157453  0.06783386  0.85180261    -0.20600
F877        F  0.14218571  0.01210822  0.86098256    -0.20300
F878        F  0.98749966  0.84370344  0.82946977    -0.20300
F879        F  0.92762642  0.88540788  0.84909799    -0.20700
F880        F  0.95196519  0.88597030  0.77528982    -0.23300
C881        C  0.78581255  0.73525201  0.08604177    -0.06200
C882        C  0.80110446  0.75315633  0.04336445    -0.00200
C883        C  0.77130304  0.75010076  0.00298865    -0.08800
C884        C  0.72811268  0.72921748  0.00678802    -0.06200
C885        C  0.71342148  0.71129108  0.04927105    -0.00300
C886        C  0.74253582  0.71476346  0.08975117    -0.08700
C887        C  0.72795909  0.69597875  0.13640422     0.61700
H888        H  0.80875420  0.73654084  0.11662403     0.12400
H889        H  0.70463889  0.72787975  0.97663936     0.12400
C890        C  0.78484058  0.76832504  0.95588933     0.61900
F891        F  0.76271633  0.69787714  0.17028886    -0.23300
F892        F  0.71398394  0.65082859  0.12996332    -0.20600
F893        F  0.69266795  0.72097539  0.15326427    -0.20300
F894        F  0.82281452  0.74654074  0.94085116    -0.20300
F895        F  0.79367080  0.81470538  0.96065797    -0.20700
F896        F  0.75105569  0.76153502  0.92133613    -0.23300
C897        C  0.22404442  0.68370821  0.95946598    -0.06200
C898        C  0.21033157  0.72948798  0.95824104    -0.00200
C899        C  0.24302419  0.76438168  0.95032964    -0.08800
C900        C  0.28842347  0.75219320  0.94885060    -0.06200
C901        C  0.30237587  0.70750949  0.95726577    -0.00300
C902        C  0.26964544  0.67202336  0.96022714    -0.08700
C903        C  0.28234002  0.62277230  0.96791837     0.61700
H904        H  0.19866526  0.65700184  0.96282266     0.12400
H905        H  0.31413791  0.77844608  0.94474140     0.12400
C906        C  0.23170802  0.81466247  0.94757037     0.61900
F907        F  0.24484715  0.59420340  0.97077717    -0.23300
F908        F  0.30724473  0.62010192  0.00978282    -0.20600
F909        F  0.30722965  0.60694300  0.93080842    -0.20300
F910        F  0.21519742  0.82944961  0.99015213    -0.20300
F911        F  0.20008130  0.82139236  0.91171338    -0.20700
F912        F  0.26915047  0.84163784  0.93842031    -0.23300
loop_ 
_geom_bond_atom_site_label_1 
_geom_bond_atom_site_label_2 
_geom_bond_distance 
_geom_bond_site_symmetry_2 
_ccdc_geom_bond_type 
Zr1           O2   2.437       .  S
Zr1           O3   2.488   1_556  S
Zr1           O4   2.545   1_556  S
Zr1           O7   2.521       .  S
Zr1           O9   2.407   1_556  S
Zr1          O10   2.388   1_656  S
Zr1          O11   2.427       .  S
Zr1          O12   2.416       .  S
O2           H58   0.990       .  S
O2           H66   0.990       .  S
O3           C23   1.293       .  A
O4           C25   1.307       .  A
O5          Zr15   2.390       .  S
O5           C24   1.276       .  A
O6          Zr14   2.387       .  S
O6           C25   1.277       .  A
O7           C24   1.302   1_655  A
O8          Zr16   2.457       .  S
O8           C23   1.289   1_455  A
O9          Zr14   2.428       .  S
O9          Zr16   2.378   1_655  S
O10         Zr15   2.374   1_554  S
O10         Zr16   2.375       .  S
O10          H45   0.963       .  S
O11         Zr14   2.420   1_556  S
O11         Zr31   2.369       .  S
O11          H48   0.963       .  S
O12         Zr15   2.413   1_655  S
O12         Zr31   2.394       .  S
Zr13         O38   2.439       .  S
Zr13         O32   2.427   1_554  S
Zr13         O40   2.401   1_554  S
Zr13         O28   2.430       .  S
Zr13         O19   2.407       .  S
Zr13         O20   2.405       .  S
Zr13         O21   2.367   1_454  S
Zr13         O22   2.378   1_554  S
Zr14         O33   2.437       .  S
Zr14         O26   2.434       .  S
Zr14         O27   2.510       .  S
Zr14         O20   2.374   1_655  S
Zr14         O21   2.369   1_554  S
Zr15         O17   2.437       .  S
Zr15         O39   2.438       .  S
Zr15         O41   2.435       .  S
Zr15         O19   2.384   1_556  S
Zr15         O22   2.365       .  S
Zr16         O42   2.437       .  S
Zr16         O43   2.436       .  S
Zr16         O18   2.439   1_455  S
Zr16         O19   2.413       .  S
Zr16         O20   2.425       .  S
O17          H54   0.990       .  S
O18          H49   0.990   1_655  S
O18          H63   0.990       .  S
O20          H46   0.966       .  S
O21         Zr31   2.384       .  S
O22         Zr31   2.374   1_455  S
O22          H47   0.966       .  S
C23         C834   1.517       .  S
C24         C866   1.499       .  S
C25         C882   1.507       .  S
O26          H62   0.990       .  S
O27          C29   1.297   1_655  A
O28          C29   1.283       .  A
C29         C818   1.535       .  S
O30         Zr31   2.438       .  S
O30          H59   0.990       .  S
Zr31         O34   2.435       .  S
Zr31         O35   2.437   1_655  S
Zr31         O36   2.407   1_655  S
O32          C37   1.286       .  A
O33          H50   0.990       .  S
O33          H65   0.990       .  S
O34          H51   0.990       .  S
O35          H55   0.989       .  S
O35          H64   0.988   1_455  S
O36          C37   1.277       .  A
C37         C853   1.488       .  S
O38          H57   0.990       .  S
O38          H61   0.991       .  S
O39          H53   0.990       .  S
O39          H60   0.989   1_556  S
O40          C44   1.280       .  A
O41          C44   1.282       .  A
O42          H52   0.990       .  S
O43          H56   0.990       .  S
C44         C898   1.488       .  S
Zr67         O68   2.441   1_554  S
Zr67         O69   2.498       .  S
Zr67         O70   2.511       .  S
Zr67         O73   2.502   1_554  S
Zr67         O75   2.409       .  S
Zr67         O76   2.385       .  S
Zr67         O77   2.436   1_554  S
Zr67         O78   2.416   1_554  S
O68         H124   0.990   1_556  S
O68         H132   0.990       .  S
O69          C89   1.296       .  A
O70          C91   1.299       .  A
O71         Zr81   2.390       .  S
O71          C90   1.276       .  A
O72         Zr80   2.408       .  S
O72          C91   1.279       .  A
O73          C90   1.297       .  A
O74         Zr82   2.455       .  S
O74          C89   1.287       .  A
O75         Zr80   2.430       .  S
O75         Zr82   2.385       .  S
O76         Zr81   2.364   1_554  S
O76         Zr82   2.373       .  S
O76         H111   0.964       .  S
O77         Zr80   2.419   1_556  S
O77         Zr97   2.379       .  S
O77         H114   0.964       .  S
O78         Zr81   2.406       .  S
O78         Zr97   2.399       .  S
Zr79        O104   2.438       .  S
Zr79         O98   2.438   1_554  S
Zr79        O106   2.402   1_554  S
Zr79         O94   2.426       .  S
Zr79         O85   2.410       .  S
Zr79         O86   2.405       .  S
Zr79         O87   2.369   1_554  S
Zr79         O88   2.378   1_554  S
Zr80         O99   2.439       .  S
Zr80         O92   2.435       .  S
Zr80         O93   2.504       .  S
Zr80         O86   2.379       .  S
Zr80         O87   2.379   1_554  S
Zr81         O83   2.435       .  S
Zr81        O105   2.433   1_556  S
Zr81        O107   2.430       .  S
Zr81         O85   2.390   1_556  S
Zr81         O88   2.364       .  S
Zr82        O108   2.436       .  S
Zr82        O109   2.436       .  S
Zr82         O84   2.437       .  S
Zr82         O85   2.410       .  S
Zr82         O86   2.419       .  S
O83         H120   0.990       .  S
O84         H115   0.990       .  S
O84         H129   0.990       .  S
O86         H112   0.966       .  S
O87         Zr97   2.383       .  S
O88         Zr97   2.365       .  S
O88         H113   0.963       .  S
C89         C770   1.525       .  S
C90         C786   1.488       .  S
C91         C885   1.489       .  S
O92         H128   0.990       .  S
O93          C95   1.297       .  A
O94          C95   1.283       .  A
C95         C754   1.529       .  S
O96         Zr97   2.437       .  S
O96         H125   0.990       .  S
Zr97        O100   2.435       .  S
Zr97        O101   2.436       .  S
Zr97        O102   2.424       .  S
O98         C103   1.285       .  A
O99         H116   0.990       .  S
O99         H131   0.990       .  S
O100        H117   0.989       .  S
O101        H121   0.990       .  S
O101        H130   0.990       .  S
O102        C103   1.282       .  A
C103        C802   1.470       .  S
O104        H123   0.991       .  S
O104        H127   0.990       .  S
O105        H119   0.988       .  S
O105        H126   0.990   1_554  S
O106        C110   1.280       .  A
O107        C110   1.282       .  A
O108        H118   0.990       .  S
O109        H122   0.991       .  S
C110        C901   1.478       .  S
Zr133       O134   2.438       .  S
Zr133       O135   2.478       .  S
Zr133       O136   2.521       .  S
Zr133       O139   2.507       .  S
Zr133       O141   2.404       .  S
Zr133       O142   2.387   1_545  S
Zr133       O143   2.426       .  S
Zr133       O144   2.411   1_545  S
O134        H190   0.990       .  S
O134        H198   0.990       .  S
O135        C155   1.292       .  A
O136        C157   1.301       .  A
O137       Zr147   2.399       .  S
O137        C156   1.278       .  A
O138       Zr146   2.378       .  S
O138        C157   1.276       .  A
O139        C156   1.299   1_545  A
O140       Zr148   2.464       .  S
O140        C155   1.289   1_565  A
O141       Zr146   2.429       .  S
O141       Zr148   2.374   1_545  S
O142       Zr147   2.368       .  S
O142       Zr148   2.375       .  S
O142        H177   0.964       .  S
O143       Zr146   2.414       .  S
O143       Zr163   2.377       .  S
O143        H180   0.963       .  S
O144       Zr147   2.404       .  S
O144       Zr163   2.399   1_565  S
Zr145       O170   2.439       .  S
Zr145       O164   2.438       .  S
Zr145       O172   2.387       .  S
Zr145       O160   2.437       .  S
Zr145       O151   2.413       .  S
Zr145       O152   2.403       .  S
Zr145       O153   2.362   1_565  S
Zr145       O154   2.379       .  S
Zr146       O165   2.436       .  S
Zr146       O158   2.435       .  S
Zr146       O159   2.501       .  S
Zr146       O152   2.376   1_545  S
Zr146       O153   2.367       .  S
Zr147       O149   2.435       .  S
Zr147       O171   2.440       .  S
Zr147       O173   2.431       .  S
Zr147       O151   2.391       .  S
Zr147       O154   2.361       .  S
Zr148       O174   2.437       .  S
Zr148       O175   2.437       .  S
Zr148       O150   2.438   1_565  S
Zr148       O151   2.416       .  S
Zr148       O152   2.425       .  S
O149        H186   0.989       .  S
O150        H181   0.990       .  S
O150        H195   0.990       .  S
O152        H178   0.966       .  S
O153       Zr163   2.377       .  S
O154       Zr163   2.368   1_565  S
O154        H179   0.965       .  S
C155        C693   1.509       .  S
C156        C869   1.499       .  S
C157        C725   1.491       .  S
O158        H194   0.990       .  S
O159        C161   1.296   1_545  A
O160        C161   1.286       .  A
C161        C706   1.532       .  S
O162       Zr163   2.435       .  S
O162        H191   0.990       .  S
Zr163       O166   2.436       .  S
Zr163       O167   2.437   1_545  S
Zr163       O168   2.421   1_545  S
O164        C169   1.287       .  A
O165        H182   0.990       .  S
O165        H197   0.989       .  S
O166        H183   0.990       .  S
O167        H187   0.990       .  S
O167        H196   0.990       .  S
O168        C169   1.281       .  A
C169        C805   1.483       .  S
O170        H189   0.990       .  S
O170        H193   0.990       .  S
O171        H185   0.990       .  S
O171        H192   0.990       .  S
O172        C176   1.279       .  A
O173        C176   1.282       .  A
O174        H184   0.990       .  S
O175        H188   0.990       .  S
C176        C738   1.477       .  S
Zr199       O200   2.441       .  S
Zr199       O201   2.509       .  S
Zr199       O202   2.508       .  S
Zr199       O205   2.496       .  S
Zr199       O207   2.407       .  S
Zr199       O208   2.385       .  S
Zr199       O209   2.445       .  S
Zr199       O210   2.418       .  S
O200        H256   0.990       .  S
O200        H264   0.990       .  S
O201        C221   1.299       .  A
O202        C223   1.299       .  A
O203       Zr213   2.389       .  S
O203        C222   1.276       .  A
O204       Zr212   2.400       .  S
O204        C223   1.277       .  A
O205        C222   1.296       .  A
O206       Zr214   2.467       .  S
O206        C221   1.289       .  A
O207       Zr212   2.434       .  S
O207       Zr214   2.378       .  S
O208       Zr213   2.372       .  S
O208       Zr214   2.370       .  S
O208        H243   0.964       .  S
O209       Zr212   2.423       .  S
O209       Zr229   2.371       .  S
O209        H246   0.963       .  S
O210       Zr213   2.400       .  S
O210       Zr229   2.402       .  S
Zr211       O236   2.439       .  S
Zr211       O230   2.425       .  S
Zr211       O238   2.390       .  S
Zr211       O226   2.422       .  S
Zr211       O217   2.412       .  S
Zr211       O218   2.404       .  S
Zr211       O219   2.361       .  S
Zr211       O220   2.382       .  S
Zr212       O231   2.438       .  S
Zr212       O224   2.434       .  S
Zr212       O225   2.511       .  S
Zr212       O218   2.370       .  S
Zr212       O219   2.374       .  S
Zr213       O215   2.436       .  S
Zr213       O237   2.438       .  S
Zr213       O239   2.421       .  S
Zr213       O217   2.386       .  S
Zr213       O220   2.367       .  S
Zr214       O240   2.433       .  S
Zr214       O241   2.437       .  S
Zr214       O216   2.437       .  S
Zr214       O217   2.411       .  S
Zr214       O218   2.425       .  S
O215        H252   0.990       .  S
O216        H247   0.990       .  S
O216        H261   0.990       .  S
O218        H244   0.966       .  S
O219       Zr229   2.383       .  S
O220       Zr229   2.373       .  S
O220        H245   0.965       .  S
C221        C661   1.540       .  S
C222        C789   1.486       .  S
C223        C722   1.490       .  S
O224        H260   0.990       .  S
O225        C227   1.298       .  A
O226        C227   1.281       .  A
C227        C674   1.510       .  S
O228       Zr229   2.438       .  S
O228        H257   0.990       .  S
Zr229       O232   2.437       .  S
Zr229       O233   2.436       .  S
Zr229       O234   2.421       .  S
O230        C235   1.285       .  A
O231        H248   0.990       .  S
O231        H263   0.990       .  S
O232        H249   0.990       .  S
O233        H253   0.990       .  S
O233        H262   0.989       .  S
O234        C235   1.280       .  A
C235        C850   1.483       .  S
O236        H255   0.991       .  S
O236        H259   0.990       .  S
O237        H251   0.989       .  S
O237        H258   0.990       .  S
O238        C242   1.275       .  A
O239        C242   1.280       .  A
O240        H250   0.989       .  S
O241        H254   0.990       .  S
C242        C741   1.451       .  S
Zr265       O266   2.440       .  S
Zr265       O267   2.493       .  S
Zr265       O268   2.547       .  S
Zr265       O271   2.530       .  S
Zr265       O273   2.421       .  S
Zr265       O274   2.390       .  S
Zr265       O275   2.435       .  S
Zr265       O276   2.415       .  S
O266        H322   0.990       .  S
O266        H330   0.990       .  S
O267        C287   1.296       .  A
O268        C289   1.306       .  A
O269       Zr279   2.391       .  S
O269        C288   1.277       .  A
O270       Zr278   2.403       .  S
O270        C289   1.277       .  A
O271        C288   1.303       .  A
O272       Zr280   2.458       .  S
O272        C287   1.287       .  A
O273       Zr278   2.433       .  S
O273       Zr280   2.389       .  S
O274       Zr279   2.373       .  S
O274       Zr280   2.375       .  S
O274        H309   0.964       .  S
O275       Zr278   2.432       .  S
O275       Zr295   2.351       .  S
O275        H312   0.962       .  S
O276       Zr279   2.405       .  S
O276       Zr295   2.391       .  S
Zr277       O302   2.437       .  S
Zr277       O296   2.422       .  S
Zr277       O304   2.433       .  S
Zr277       O292   2.442       .  S
Zr277       O283   2.407       .  S
Zr277       O284   2.414       .  S
Zr277       O285   2.375       .  S
Zr277       O286   2.385       .  S
Zr278       O297   2.443       .  S
Zr278       O290   2.432       .  S
Zr278       O291   2.519       .  S
Zr278       O284   2.377       .  S
Zr278       O285   2.374       .  S
Zr279       O281   2.435       .  S
Zr279       O303   2.440       .  S
Zr279       O305   2.422       .  S
Zr279       O283   2.387       .  S
Zr279       O286   2.364       .  S
Zr280       O306   2.437       .  S
Zr280       O307   2.437       .  S
Zr280       O282   2.440       .  S
Zr280       O283   2.412       .  S
Zr280       O284   2.427       .  S
O281        H318   0.990       .  S
O282        H313   0.990       .  S
O282        H327   0.990       .  S
O284        H310   0.966       .  S
O285       Zr295   2.384       .  S
O286       Zr295   2.372       .  S
O286        H311   0.968       .  S
C287        C677   1.518       .  S
C288        C613   1.501       .  S
C289        C626   1.497       .  S
O290        H326   0.990       .  S
O291        C293   1.299       .  A
O292        C293   1.285       .  A
C293        C658   1.523       .  S
O294       Zr295   2.437       .  S
O294        H323   0.990       .  S
Zr295       O298   2.436       .  S
Zr295       O299   2.437       .  S
Zr295       O300   2.390       .  S
O296        C301   1.284       .  A
O297        H314   0.990       .  S
O297        H329   0.991       .  S
O298        H315   0.990       .  S
O299        H319   0.990       .  S
O299        H328   0.990       .  S
O300        C301   1.277       .  A
C301        C594   1.459       .  S
O302        H321   0.990       .  S
O302        H325   0.990       .  S
O303        H317   0.990       .  S
O303        H324   0.990       .  S
O304        C308   1.283       .  A
O305        C308   1.283       .  A
O306        H316   0.990       .  S
O307        H320   0.990       .  S
C308        C645   1.485       .  S
Zr331       O332   2.436       .  S
Zr331       O333   2.495       .  S
Zr331       O334   2.559       .  S
Zr331       O337   2.528       .  S
Zr331       O339   2.415       .  S
Zr331       O340   2.390   1_565  S
Zr331       O341   2.436       .  S
Zr331       O342   2.418       .  S
O332        H388   0.990       .  S
O332        H396   0.989       .  S
O333        C353   1.295       .  A
O334        C355   1.309       .  A
O335       Zr345   2.389       .  S
O335        C354   1.276   1_545  A
O336       Zr344   2.397       .  S
O336        C355   1.277       .  A
O337        C354   1.303       .  A
O338       Zr346   2.460       .  S
O338        C353   1.289   1_545  A
O339       Zr344   2.427       .  S
O339       Zr346   2.387   1_565  S
O340       Zr345   2.376       .  S
O340       Zr346   2.372       .  S
O340        H375   0.964       .  S
O341       Zr344   2.431       .  S
O341       Zr361   2.360       .  S
O341        H378   0.962       .  S
O342       Zr345   2.407   1_565  S
O342       Zr361   2.399       .  S
Zr343       O368   2.439       .  S
Zr343       O362   2.432       .  S
Zr343       O370   2.417       .  S
Zr343       O358   2.427       .  S
Zr343       O349   2.407       .  S
Zr343       O350   2.412       .  S
Zr343       O351   2.368   1_545  S
Zr343       O352   2.376       .  S
Zr344       O363   2.444       .  S
Zr344       O356   2.435       .  S
Zr344       O357   2.499       .  S
Zr344       O350   2.373   1_565  S
Zr344       O351   2.375       .  S
Zr345       O347   2.437       .  S
Zr345       O369   2.438       .  S
Zr345       O371   2.426       .  S
Zr345       O349   2.388       .  S
Zr345       O352   2.362       .  S
Zr346       O372   2.437       .  S
Zr346       O373   2.438       .  S
Zr346       O348   2.440   1_545  S
Zr346       O349   2.416       .  S
Zr346       O350   2.426       .  S
O347        H384   0.990       .  S
O348        H379   0.990   1_565  S
O348        H393   0.990       .  S
O350        H376   0.966       .  S
O351       Zr361   2.384       .  S
O352       Zr361   2.367   1_545  S
O352        H377   0.966       .  S
C353        C709   1.532       .  S
C354        C562   1.498       .  S
C355        C629   1.524       .  S
O356        H392   0.990       .  S
O357        C359   1.295   1_565  A
O358        C359   1.283       .  A
C359        C690   1.511       .  S
O360       Zr361   2.436       .  S
O360        H389   0.990       .  S
Zr361       O364   2.436       .  S
Zr361       O365   2.436       .  S
Zr361       O366   2.416       .  S
O362        C367   1.287       .  A
O363        H380   0.990       .  S
O363        H395   0.991       .  S
O364        H381   0.990       .  S
O365        H385   0.990       .  S
O365        H394   0.989   1_565  S
O366        C367   1.279   1_565  A
C367        C578   1.491       .  S
O368        H387   0.990       .  S
O368        H391   0.990       .  S
O369        H383   0.990       .  S
O369        H390   0.990       .  S
O370        C374   1.282       .  A
O371        C374   1.284       .  A
O372        H382   0.990       .  S
O373        H386   0.990       .  S
C374        C642   1.480       .  S
Zr397       O398   2.440       .  S
Zr397       O399   2.490       .  S
Zr397       O400   2.530       .  S
Zr397       O403   2.523       .  S
Zr397       O405   2.403       .  S
Zr397       O406   2.391   1_455  S
Zr397       O407   2.434       .  S
Zr397       O408   2.417       .  S
O398        H454   0.990       .  S
O398        H462   0.990       .  S
O399        C419   1.294       .  A
O400        C421   1.303       .  A
O401       Zr411   2.392       .  S
O401        C420   1.276   1_655  A
O402       Zr410   2.389       .  S
O402        C421   1.276       .  A
O403        C420   1.302       .  A
O404       Zr412   2.447       .  S
O404        C419   1.286   1_655  A
O405       Zr410   2.421       .  S
O405       Zr412   2.378   1_455  S
O406       Zr411   2.378       .  S
O406       Zr412   2.378       .  S
O406        H441   0.965       .  S
O407       Zr410   2.412       .  S
O407       Zr427   2.371       .  S
O407        H444   0.964       .  S
O408       Zr411   2.407   1_455  S
O408       Zr427   2.392       .  S
Zr409       O434   2.440       .  S
Zr409       O428   2.432       .  S
Zr409       O436   2.412       .  S
Zr409       O424   2.432       .  S
Zr409       O415   2.410       .  S
Zr409       O416   2.404       .  S
Zr409       O417   2.371   1_655  S
Zr409       O418   2.383       .  S
Zr410       O429   2.434       .  S
Zr410       O422   2.435       .  S
Zr410       O423   2.493       .  S
Zr410       O416   2.374   1_455  S
Zr410       O417   2.375       .  S
Zr411       O413   2.438       .  S
Zr411       O435   2.439       .  S
Zr411       O437   2.435       .  S
Zr411       O415   2.389       .  S
Zr411       O418   2.370       .  S
Zr412       O438   2.436       .  S
Zr412       O439   2.437       .  S
Zr412       O414   2.439   1_655  S
Zr412       O415   2.413       .  S
Zr412       O416   2.415       .  S
O413        H450   0.990       .  S
O414        H445   0.990   1_455  S
O414        H459   0.990       .  S
O416        H442   0.966       .  S
O417       Zr427   2.384       .  S
O418       Zr427   2.373   1_655  S
O418        H443   0.966       .  S
C419        C821   1.504       .  S
C420        C610   1.500       .  S
C421        C530   1.492       .  S
O422        H458   0.990       .  S
O423        C425   1.294       .  A
O424        C425   1.285   1_655  A
C425        C837   1.528       .  S
O426       Zr427   2.437       .  S
O426        H455   0.991       .  S
Zr427       O430   2.434       .  S
Zr427       O431   2.433       .  S
Zr427       O432   2.417   1_455  S
O428        C433   1.285       .  A
O429        H446   0.990       .  S
O429        H461   0.989       .  S
O430        H447   0.989       .  S
O431        H451   0.990       .  S
O431        H460   0.989   1_455  S
O432        C433   1.279       .  A
C433        C581   1.490       .  S
O434        H453   0.991       .  S
O434        H457   0.990       .  S
O435        H449   0.990       .  S
O435        H456   0.989       .  S
O436        C440   1.281       .  A
O437        C440   1.282       .  A
O438        H448   0.990       .  S
O439        H452   0.990       .  S
C440        C546   1.498       .  S
Zr463       O464   2.440       .  S
Zr463       O465   2.512       .  S
Zr463       O466   2.543       .  S
Zr463       O469   2.523       .  S
Zr463       O471   2.416       .  S
Zr463       O472   2.387       .  S
Zr463       O473   2.435       .  S
Zr463       O474   2.415       .  S
O464        H520   0.990       .  S
O464        H528   0.989       .  S
O465        C485   1.297       .  A
O466        C487   1.306       .  A
O467       Zr477   2.388       .  S
O467        C486   1.276       .  A
O468       Zr476   2.398       .  S
O468        C487   1.279       .  A
O469        C486   1.302       .  A
O470       Zr478   2.436       .  S
O470        C485   1.286       .  A
O471       Zr476   2.432       .  S
O471       Zr478   2.382       .  S
O472       Zr477   2.369       .  S
O472       Zr478   2.379       .  S
O472        H507   0.962       .  S
O473       Zr476   2.424       .  S
O473       Zr493   2.358       .  S
O473        H510   0.961       .  S
O474       Zr477   2.406       .  S
O474       Zr493   2.394       .  S
Zr475       O500   2.437       .  S
Zr475       O494   2.419       .  S
Zr475       O502   2.432       .  S
Zr475       O490   2.428       .  S
Zr475       O481   2.404       .  S
Zr475       O482   2.410       .  S
Zr475       O483   2.376       .  S
Zr475       O484   2.379       .  S
Zr476       O495   2.441       .  S
Zr476       O488   2.435       .  S
Zr476       O489   2.511       .  S
Zr476       O482   2.375       .  S
Zr476       O483   2.368       .  S
Zr477       O479   2.436       .  S
Zr477       O501   2.438       .  S
Zr477       O503   2.419       .  S
Zr477       O481   2.388       .  S
Zr477       O484   2.366       .  S
Zr478       O504   2.434       .  S
Zr478       O505   2.438       .  S
Zr478       O480   2.441       .  S
Zr478       O481   2.412       .  S
Zr478       O482   2.412       .  S
O479        H516   0.990       .  S
O480        H511   0.990       .  S
O480        H525   0.990       .  S
O482        H508   0.966       .  S
O483       Zr493   2.377       .  S
O484       Zr493   2.371       .  S
O484        H509   0.966       .  S
C485        C757   1.519   1_545  S
C486        C565   1.498       .  S
C487        C533   1.504       .  S
O488        H524   0.990       .  S
O489        C491   1.297       .  A
O490        C491   1.282       .  A
C491        C773   1.511       .  S
O492       Zr493   2.436       .  S
O492        H521   0.990       .  S
Zr493       O496   2.436       .  S
Zr493       O497   2.437       .  S
Zr493       O498   2.391       .  S
O494        C499   1.280       .  A
O495        H512   0.990       .  S
O495        H527   0.990       .  S
O496        H513   0.990       .  S
O497        H517   0.990       .  S
O497        H526   0.990       .  S
O498        C499   1.278       .  A
C499        C597   1.480       .  S
O500        H519   0.990       .  S
O500        H523   0.990       .  S
O501        H515   0.990       .  S
O501        H522   0.989       .  S
O502        C506   1.285       .  A
O503        C506   1.280       .  A
O504        H514   0.990       .  S
O505        H518   0.990       .  S
C506        C549   1.479       .  S
C529        C530   1.407       .  A
C529        C534   1.419       .  A
C529        H536   1.083       .  S
C530        C531   1.417       .  A
C531        C532   1.412       .  A
C531        C538   1.519       .  S
C532        C533   1.411       .  A
C532        H537   1.083       .  S
C533        C534   1.422       .  A
C534        C535   1.515       .  S
C535        F539   1.381       .  S
C535        F540   1.381       .  S
C535        F541   1.385       .  S
C538        F542   1.383       .  S
C538        F543   1.382       .  S
C538        F544   1.385       .  S
C545        C546   1.412       .  A
C545        C550   1.404       .  A
C545        H552   1.082       .  S
C546        C547   1.426       .  A
C547        C548   1.406       .  A
C547        C554   1.519       .  S
C548        C549   1.401       .  A
C548        H553   1.083       .  S
C549        C550   1.416       .  A
C550        C551   1.520       .  S
C551        F555   1.385       .  S
C551        F556   1.383       .  S
C551        F557   1.382       .  S
C554        F558   1.381       .  S
C554        F559   1.383       .  S
C554        F560   1.385       .  S
C561        C562   1.403       .  A
C561        C566   1.415       .  A
C561        H568   1.084       .  S
C562        C563   1.425   1_565  A
C563        C564   1.417       .  A
C563        C570   1.515       .  S
C564        C565   1.404       .  A
C564        H569   1.084       .  S
C565        C566   1.424   1_545  A
C566        C567   1.516       .  S
C567        F571   1.383       .  S
C567        F572   1.383       .  S
C567        F573   1.384       .  S
C570        F574   1.383       .  S
C570        F575   1.383       .  S
C570        F576   1.383       .  S
C577        C578   1.403       .  A
C577        C582   1.401       .  A
C577        H584   1.082       .  S
C578        C579   1.425       .  A
C579        C580   1.406       .  A
C579        C586   1.520       .  S
C580        C581   1.405       .  A
C580        H585   1.083       .  S
C581        C582   1.424       .  A
C582        C583   1.519       .  S
C583        F587   1.384       .  S
C583        F588   1.381       .  S
C583        F589   1.383   1_655  S
C586        F590   1.380       .  S
C586        F591   1.383   1_545  S
C586        F592   1.385       .  S
C593        C594   1.402       .  A
C593        C598   1.398       .  A
C593        H600   1.083       .  S
C594        C595   1.407       .  A
C595        C596   1.394       .  A
C595        C602   1.517       .  S
C596        C597   1.412       .  A
C596        H601   1.084       .  S
C597        C598   1.422       .  A
C598        C599   1.522       .  S
C599        F603   1.385       .  S
C599        F604   1.381       .  S
C599        F605   1.383       .  S
C602        F606   1.380       .  S
C602        F607   1.383       .  S
C602        F608   1.384       .  S
C609        C610   1.410   1_655  A
C609        C614   1.419       .  A
C609        H616   1.083       .  S
C610        C611   1.417       .  A
C611        C612   1.419   1_455  A
C611        C618   1.514       .  S
C612        C613   1.411       .  A
C612        H617   1.084   1_655  S
C613        C614   1.418       .  A
C614        C615   1.516       .  S
C615        F619   1.385       .  S
C615        F620   1.383       .  S
C615        F621   1.383       .  S
C618        F622   1.383       .  S
C618        F623   1.383       .  S
C618        F624   1.385       .  S
C625        C626   1.411       .  A
C625        C630   1.420       .  A
C625        H632   1.083       .  S
C626        C627   1.409       .  A
C627        C628   1.417       .  A
C627        C634   1.516       .  S
C628        C629   1.423       .  A
C628        H633   1.082       .  S
C629        C630   1.422       .  A
C630        C631   1.513       .  S
C631        F635   1.385       .  S
C631        F636   1.383       .  S
C631        F637   1.382       .  S
C634        F638   1.383       .  S
C634        F639   1.383       .  S
C634        F640   1.385       .  S
C641        C642   1.404       .  A
C641        C646   1.405       .  A
C641        H648   1.083       .  S
C642        C643   1.416       .  A
C643        C644   1.400       .  A
C643        C650   1.518       .  S
C644        C645   1.407       .  A
C644        H649   1.084       .  S
C645        C646   1.422       .  A
C646        C647   1.520       .  S
C647        F651   1.386       .  S
C647        F652   1.383       .  S
C647        F653   1.380       .  S
C650        F654   1.382       .  S
C650        F655   1.383       .  S
C650        F656   1.385       .  S
C657        C658   1.407       .  A
C657        C662   1.428       .  A
C657        H664   1.083       .  S
C658        C659   1.420       .  A
C659        C660   1.425       .  A
C659        C666   1.516       .  S
C660        C661   1.415       .  A
C660        H665   1.082       .  S
C661        C662   1.435       .  A
C662        C663   1.519       .  S
C663        F667   1.385       .  S
C663        F668   1.383       .  S
C663        F669   1.383       .  S
C666        F670   1.383       .  S
C666        F671   1.381       .  S
C666        F672   1.385       .  S
C673        C674   1.408       .  A
C673        C678   1.420       .  A
C673        H680   1.083       .  S
C674        C675   1.419       .  A
C675        C676   1.424       .  A
C675        C682   1.516       .  S
C676        C677   1.413   1_455  A
C676        H681   1.083       .  S
C677        C678   1.425   1_655  A
C678        C679   1.518   1_455  S
C679        F683   1.385   1_655  S
C679        F684   1.382       .  S
C679        F685   1.383       .  S
C682        F686   1.382       .  S
C682        F687   1.383       .  S
C682        F688   1.385       .  S
C689        C690   1.411       .  A
C689        C694   1.419   1_655  A
C689        H696   1.083       .  S
C690        C691   1.422       .  A
C691        C692   1.421       .  A
C691        C698   1.517   1_545  S
C692        C693   1.411   1_655  A
C692        H697   1.083   1_655  S
C693        C694   1.419       .  A
C694        C695   1.517       .  S
C695        F699   1.385       .  S
C695        F700   1.382   1_545  S
C695        F701   1.383       .  S
C698        F702   1.382       .  S
C698        F703   1.383   1_565  S
C698        F704   1.385       .  S
C705        C706   1.415       .  A
C705        C710   1.422       .  A
C705        H712   1.082       .  S
C706        C707   1.427   1_565  A
C707        C708   1.424       .  A
C707        C714   1.519       .  S
C708        C709   1.417   1_545  A
C708        H713   1.081       .  S
C709        C710   1.426       .  A
C710        C711   1.519       .  S
C711        F715   1.385       .  S
C711        F716   1.383       .  S
C711        F717   1.383       .  S
C714        F718   1.382       .  S
C714        F719   1.383       .  S
C714        F720   1.385       .  S
C721        C722   1.407       .  A
C721        C726   1.414       .  A
C721        H728   1.083       .  S
C722        C723   1.419       .  A
C723        C724   1.409       .  A
C723        C730   1.519       .  S
C724        C725   1.408       .  A
C724        H729   1.084       .  S
C725        C726   1.420       .  A
C726        C727   1.516       .  S
C727        F731   1.385       .  S
C727        F732   1.380       .  S
C727        F733   1.382       .  S
C730        F734   1.383       .  S
C730        F735   1.382       .  S
C730        F736   1.385       .  S
C737        C738   1.406       .  A
C737        C742   1.392       .  A
C737        H744   1.082       .  S
C738        C739   1.422       .  A
C739        C740   1.404       .  A
C739        C746   1.516       .  S
C740        C741   1.398       .  A
C740        H745   1.084       .  S
C741        C742   1.408       .  A
C742        C743   1.520       .  S
C743        F747   1.384       .  S
C743        F748   1.382       .  S
C743        F749   1.381       .  S
C746        F750   1.383       .  S
C746        F751   1.383       .  S
C746        F752   1.384       .  S
C753        C754   1.420       .  A
C753        C758   1.424       .  A
C753        H760   1.082       .  S
C754        C755   1.425       .  A
C755        C756   1.418       .  A
C755        C762   1.518       .  S
C756        C757   1.412       .  A
C756        H761   1.082   1_565  S
C757        C758   1.419       .  A
C758        C759   1.516       .  S
C759        F763   1.385       .  S
C759        F764   1.383   1_565  S
C759        F765   1.382       .  S
C762        F766   1.382       .  S
C762        F767   1.383       .  S
C762        F768   1.385       .  S
C769        C770   1.413       .  A
C769        C774   1.422       .  A
C769        H776   1.082       .  S
C770        C771   1.429       .  A
C771        C772   1.422       .  A
C771        C778   1.519       .  S
C772        C773   1.406       .  A
C772        H777   1.083       .  S
C773        C774   1.419       .  A
C774        C775   1.516       .  S
C775        F779   1.385       .  S
C775        F780   1.383       .  S
C775        F781   1.383       .  S
C778        F782   1.382       .  S
C778        F783   1.384       .  S
C778        F784   1.385       .  S
C785        C786   1.401       .  A
C785        C790   1.411       .  A
C785        H792   1.085       .  S
C786        C787   1.423       .  A
C787        C788   1.410       .  A
C787        C794   1.514       .  S
C788        C789   1.400       .  A
C788        H793   1.085       .  S
C789        C790   1.422       .  A
C790        C791   1.514       .  S
C791        F795   1.383       .  S
C791        F796   1.383       .  S
C791        F797   1.381       .  S
C794        F798   1.383       .  S
C794        F799   1.381       .  S
C794        F800   1.383       .  S
C801        C802   1.400       .  A
C801        C806   1.409       .  A
C801        H808   1.083       .  S
C802        C803   1.415       .  A
C803        C804   1.401       .  A
C803        C810   1.519       .  S
C804        C805   1.404       .  A
C804        H809   1.083       .  S
C805        C806   1.423       .  A
C806        C807   1.518       .  S
C807        F811   1.385       .  S
C807        F812   1.383       .  S
C807        F813   1.383       .  S
C810        F814   1.382       .  S
C810        F815   1.380       .  S
C810        F816   1.385       .  S
C817        C818   1.424       .  A
C817        C822   1.422       .  A
C817        H824   1.082       .  S
C818        C819   1.430   1_455  A
C819        C820   1.421       .  A
C819        C826   1.516       .  S
C820        C821   1.405   1_655  A
C820        H825   1.083       .  S
C821        C822   1.412       .  A
C822        C823   1.517       .  S
C823        F827   1.384       .  S
C823        F828   1.384       .  S
C823        F829   1.383       .  S
C826        F830   1.381       .  S
C826        F831   1.382       .  S
C826        F832   1.385       .  S
C833        C834   1.411   1_455  A
C833        C838   1.420   1_565  A
C833        H840   1.083       .  S
C834        C835   1.420       .  A
C835        C836   1.420   1_565  A
C835        C842   1.518       .  S
C836        C837   1.417   1_655  A
C836        H841   1.082       .  S
C837        C838   1.427       .  A
C838        C839   1.517       .  S
C839        F843   1.385       .  S
C839        F844   1.381       .  S
C839        F845   1.383       .  S
C842        F846   1.383       .  S
C842        F847   1.382       .  S
C842        F848   1.385   1_565  S
C849        C850   1.404       .  A
C849        C854   1.403       .  A
C849        H856   1.083       .  S
C850        C851   1.420       .  A
C851        C852   1.401       .  A
C851        C858   1.518       .  S
C852        C853   1.405       .  A
C852        H857   1.082       .  S
C853        C854   1.425       .  A
C854        C855   1.521       .  S
C855        F859   1.380       .  S
C855        F860   1.383   1_455  S
C855        F861   1.385       .  S
C858        F862   1.381       .  S
C858        F863   1.382       .  S
C858        F864   1.385       .  S
C865        C866   1.412       .  A
C865        C870   1.418       .  A
C865        H872   1.083       .  S
C866        C867   1.416   1_455  A
C867        C868   1.416   1_655  A
C867        C874   1.514       .  S
C868        C869   1.410       .  A
C868        H873   1.084       .  S
C869        C870   1.416       .  A
C870        C871   1.517   1_565  S
C871        F875   1.384       .  S
C871        F876   1.383       .  S
C871        F877   1.384       .  S
C874        F878   1.381       .  S
C874        F879   1.383       .  S
C874        F880   1.384       .  S
C881        C882   1.416       .  A
C881        C886   1.414       .  A
C881        H888   1.083       .  S
C882        C883   1.422       .  A
C883        C884   1.417       .  A
C883        C890   1.514   1_554  S
C884        C885   1.405       .  A
C884        H889   1.083   1_554  S
C885        C886   1.413       .  A
C886        C887   1.518       .  S
C887        F891   1.384       .  S
C887        F892   1.384       .  S
C887        F893   1.382       .  S
C890        F894   1.382       .  S
C890        F895   1.381       .  S
C890        F896   1.385       .  S
C897        C898   1.411       .  A
C897        C902   1.402       .  A
C897        H904   1.083       .  S
C898        C899   1.422       .  A
C899        C900   1.403       .  A
C899        C906   1.521       .  S
C900        C901   1.405       .  A
C900        H905   1.083       .  S
C901        C902   1.414       .  A
C902        C903   1.518       .  S
C903        F907   1.384       .  S
C903        F908   1.381   1_556  S
C903        F909   1.383       .  S
C906        F910   1.382       .  S
C906        F911   1.380       .  S
C906        F912   1.385       .  S
