geometry optimzed in LAMMPS
_audit_creation_date              2020-12-01 
_audit_creation_method            'lammps2cif' 
_symmetry_space_group_name_H-M    'P1' 
_symmetry_Int_Tables_number       1 
_symmetry_cell_setting            triclinic 
loop_ 
_symmetry_equiv_pos_as_xyz 
  x,y,z 
_cell_length_a                    43.64901468 
_cell_length_b                    43.49667158212085 
_cell_length_c                    37.536033438445074 
_cell_angle_alpha                 91.40536841599646 
_cell_angle_beta                  89.17053090010249 
_cell_angle_gamma                 120.35422156943258 
loop_ 
_atom_site_label 
_atom_site_type_symbol 
_atom_site_fract_x 
_atom_site_fract_y 
_atom_site_fract_z 
_atom_site_charge 
Fe1        Fe  0.48317739  0.73128904  0.22771371     1.65800
Fe2        Fe  0.52282361  0.70218504  0.28136523     1.73200
Fe3        Fe  0.51331887  0.77415887  0.30479565     1.54400
O4          O  0.52235711  0.80900116  0.25989274    -0.82500
O5          O  0.50169768  0.69286688  0.33149827    -0.80800
O6          O  0.52392832  0.77868288  0.21211172    -0.85000
O7          O  0.45397602  0.75424015  0.24777496    -0.79900
O8          O  0.56657266  0.79128781  0.30888561    -0.81600
O9          O  0.47263222  0.65854331  0.26486232    -0.84400
C10         C  0.44462558  0.76062635  0.27765944     0.96400
C11         C  0.52462122  0.80575739  0.22564223     1.03800
O12         O  0.50706413  0.73596353  0.27177566    -1.13400
O13         O  0.54609836  0.70576834  0.23179156    -0.75800
O14         O  0.50529867  0.70617997  0.19829212    -0.79300
O15         O  0.46044994  0.76095958  0.30567242    -0.80000
C16         C  0.53115222  0.70105761  0.20195617     0.95300
O17         O  0.44421904  0.68518560  0.24538691    -0.77900
O18         O  0.57280880  0.74375562  0.29941360    -0.83100
C19         C  0.49558764  0.70993162  0.35549707     0.97900
C20         C  0.58561987  0.77677267  0.30795224     1.03800
O21         O  0.50143844  0.74164603  0.35084593    -0.78800
C22         C  0.44387333  0.65792778  0.25639058     1.02100
Fe23       Fe  0.83976683  0.92402650  0.43037370     1.65800
Fe24       Fe  0.79368425  0.94758226  0.37863104     1.73200
Fe25       Fe  0.80805959  0.87858910  0.35357436     1.54400
O26         O  0.86083653  0.89324603  0.35092843    -0.82500
O27         O  0.74450418  0.90348272  0.36375860    -0.80800
O28         O  0.87132628  0.90613342  0.40791054    -0.85000
O29         O  0.80296663  0.87442009  0.44665253    -0.79900
O30         O  0.81850753  0.91112057  0.30799136    -0.81600
O31         O  0.77364655  0.94557963  0.42985510    -0.84400
C32         C  0.80208017  0.84756567  0.43196903     0.96400
C33         C  0.87893931  0.89756387  0.37832730     1.03800
O34         O  0.81344021  0.91671471  0.38716167    -1.13400
O35         O  0.84217379  0.99367310  0.39220473    -0.75800
O36         O  0.87558218  0.97281346  0.41379128    -0.79300
O37         O  0.80208231  0.84417307  0.39759381    -0.80000
C38         C  0.87203381  0.99795125  0.40219137     0.95300
O39         O  0.81580169  0.94546738  0.46139323    -0.77900
O40         O  0.81204907  0.95644109  0.32718163    -0.83100
C41         C  0.73337296  0.87120341  0.35366876     0.97900
C42         C  0.82116101  0.94152121  0.30341530     1.03800
O43         O  0.75402501  0.85862652  0.35049405    -0.78800
C44         C  0.79050362  0.95143894  0.45879891     1.02100
Fe45       Fe  0.24946707  0.74770231  0.22809472     1.65800
Fe46       Fe  0.28295262  0.81952231  0.28177941     1.73200
Fe47       Fe  0.21483406  0.73935232  0.30994969     1.54400
O48         O  0.17506617  0.71480450  0.27047405    -0.82500
O49         O  0.29446083  0.81070056  0.33050634    -0.80800
O50         O  0.19949310  0.73897086  0.21783341    -0.85000
O51         O  0.22497147  0.69653693  0.24548075    -0.79900
O52         O  0.19933855  0.77634735  0.31942226    -0.81600
O53         O  0.32450413  0.81064847  0.26522598    -0.84400
C54         C  0.22271069  0.68180196  0.27458123     0.96400
C55         C  0.17275082  0.71763720  0.23676351     1.03800
O56         O  0.24868623  0.76931958  0.27350226    -1.13400
O57         O  0.27810698  0.83732252  0.23270974    -0.75800
O58         O  0.27440865  0.79374582  0.19882094    -0.79300
O59         O  0.22629191  0.69836877  0.30392720    -0.80000
C60         C  0.28236334  0.82583017  0.20298774     0.95300
O61         O  0.29839314  0.75506657  0.24197893    -0.77900
O62         O  0.24325656  0.82952464  0.30167838    -0.83100
C63         C  0.28180055  0.78900531  0.35538303     0.97900
C64         C  0.21250705  0.80964545  0.31547915     1.03800
O65         O  0.25159691  0.76053956  0.35258651    -0.78800
C66         C  0.32488639  0.78200260  0.25673237     1.02100
Fe67       Fe  0.07073269  0.91169203  0.44353632     1.65800
Fe68       Fe  0.03875649  0.84030317  0.38735183     1.73200
Fe69       Fe  0.10414113  0.92218533  0.36148573     1.54400
O70         O  0.09093779  0.96151713  0.36892951    -0.82500
O71         O  0.08102452  0.83271534  0.37106488    -0.80800
O72         O  0.09392713  0.96349919  0.42691047    -0.85000
O73         O  0.12131782  0.92204824  0.45323542    -0.79900
O74         O  0.06671655  0.90134157  0.31924823    -0.81600
O75         O  0.03997964  0.82132349  0.43737994    -0.84400
C76         C  0.14760082  0.94381867  0.43418938     0.96400
C77         C  0.09704141  0.97889573  0.39802707     1.03800
O78         O  0.07145972  0.89081266  0.39739501    -1.13400
O79         O  0.99703503  0.84972884  0.40068796    -0.75800
O80         O  0.02093304  0.90223021  0.43064196    -0.79300
O81         O  0.14440635  0.94694853  0.40068548    -0.80000
C82         C  0.99589767  0.87727570  0.41225132     0.95300
O83         O  0.04815811  0.86581719  0.47263179    -0.77900
O84         O  0.02848751  0.84637723  0.33601066    -0.83100
C85         C  0.11116252  0.85422148  0.35678873     0.97900
C86         C  0.03922225  0.87082019  0.31365620     1.03800
O87         O  0.12129421  0.88671755  0.35133305    -0.78800
C88         C  0.03853756  0.83341342  0.46788481     1.02100
Fe89       Fe  0.23280605  0.50339030  0.22411547     1.65800
Fe90       Fe  0.24546009  0.47374710  0.30006649     1.73200
Fe91       Fe  0.16285146  0.45923745  0.27647972     1.54400
O92         O  0.16705581  0.50815448  0.26285073    -0.82500
O93         O  0.21056696  0.42025281  0.30398463    -0.80800
O94         O  0.22262492  0.54164217  0.24196791    -0.85000
O95         O  0.18696414  0.48110046  0.19493658    -0.79900
O96         O  0.17300368  0.47934108  0.32703746    -0.81600
O97         O  0.27243744  0.46521467  0.25563396    -0.84400
C98         C  0.15593852  0.45487980  0.19754542     0.96400
C99         C  0.19367404  0.53826769  0.25401505     1.03800
O100        O  0.21331791  0.47866494  0.26754779    -1.13400
O101        O  0.28390883  0.52675669  0.30148226    -0.75800
O102        O  0.28393580  0.53308640  0.24382843    -0.79300
O103        O  0.14523529  0.43737795  0.22590339    -0.80000
C104        C  0.29929140  0.54280043  0.27355244     0.95300
O105        O  0.24075216  0.46276083  0.20876229    -0.77900
O106        O  0.22431813  0.48584156  0.34557839    -0.83100
C107        C  0.17737019  0.39924813  0.30092414     0.97900
C108        C  0.19696973  0.48895509  0.35022721     1.03800
O109        O  0.15632253  0.40999514  0.29153415    -0.78800
C110        C  0.26759538  0.46338736  0.22164317     1.02100
Fe111      Fe  0.08126591  0.15513379  0.43135325     1.65800
Fe112      Fe  0.15011223  0.19933526  0.37530240     1.73200
Fe113      Fe  0.06568421  0.17957145  0.35312026     1.54400
O114        O  0.02934896  0.12598764  0.35655243    -0.82500
O115        O  0.15367563  0.24721338  0.36059361    -0.80800
O116        O  0.03043221  0.12256293  0.41452867    -0.85000
O117        O  0.06654382  0.19156234  0.44626723    -0.79900
O118        O  0.08540778  0.16560362  0.30860843    -0.81600
O119        O  0.16965410  0.22169348  0.42547845    -0.84400
C120        C  0.04403020  0.19616663  0.42940300     0.96400
C121        C  0.01465006  0.11112666  0.38521900     1.03800
O122        O  0.09950645  0.17870941  0.38645271    -1.13400
O123        O  0.14850668  0.15185936  0.38901113    -0.75800
O124        O  0.09548244  0.11854648  0.41564629    -0.79300
O125        O  0.04042497  0.19176914  0.39542955    -0.80000
C126        C  0.12429919  0.12250878  0.40216200     0.95300
O127        O  0.12746686  0.18150669  0.45927022    -0.77900
O128        O  0.14001723  0.17943212  0.32407022    -0.83100
C129        C  0.13154726  0.25552770  0.34864195     0.97900
C130        C  0.11447512  0.16647325  0.30230672     1.03800
O131        O  0.09879025  0.23291742  0.34461290    -0.78800
C132        C  0.15900656  0.20619263  0.45498723     1.02100
Fe133      Fe  0.58442253  0.16968219  0.39714309     1.65800
Fe134      Fe  0.61886497  0.13149124  0.44629976     1.73200
Fe135      Fe  0.55165834  0.14348847  0.47866710     1.54400
O136        O  0.56590749  0.19685639  0.47689396    -0.82500
O137        O  0.57931836  0.08206077  0.46599179    -0.80800
O138        O  0.56215398  0.19813515  0.41857128    -0.85000
O139        O  0.53469207  0.12826879  0.38713516    -0.79900
O140        O  0.58850204  0.15708250  0.52080687    -0.81600
O141        O  0.61210583  0.10796333  0.39616013    -0.84400
C142        C  0.50842212  0.12401877  0.40607027     0.96400
C143        C  0.56253068  0.21099440  0.44922439     1.03800
O144        O  0.58482670  0.14751933  0.44100638    -1.13400
O145        O  0.66000561  0.18125198  0.42904536    -0.75800
O146        O  0.63337386  0.21064960  0.40987225    -0.79300
O147        O  0.51125064  0.12997267  0.43995270    -0.80000
C148        C  0.66025200  0.20995397  0.42132912     0.95300
O149        O  0.60795776  0.14784711  0.36527019    -0.77900
O150        O  0.63262191  0.15299037  0.49584124    -0.83100
C151        C  0.54831848  0.07080220  0.47937590     0.97900
C152        C  0.61914664  0.16010906  0.52229294     1.03800
O153        O  0.53466545  0.09040122  0.48403939    -0.78800
C154        C  0.61655391  0.12424966  0.36745875     1.02100
Fe155      Fe  0.40001383  0.82356391  0.60227717     1.65800
Fe156      Fe  0.37498071  0.86708463  0.54793095     1.73200
Fe157      Fe  0.44140257  0.84993085  0.52383463     1.54400
O158        O  0.47874111  0.86523348  0.56543708    -0.82500
O159        O  0.36685924  0.84874114  0.49670675    -0.80800
O160        O  0.45055802  0.86111998  0.61729602    -0.85000
O161        O  0.41906240  0.79169286  0.58543257    -0.79900
O162        O  0.45970848  0.90273166  0.51491433    -0.81600
O163        O  0.32958426  0.81764984  0.56029130    -0.84400
C164        C  0.42682467  0.78210975  0.55660738     0.96400
C165        C  0.47870062  0.86886293  0.59949893     1.03800
O166        O  0.40596497  0.84775055  0.55797800    -1.13400
O167        O  0.37557401  0.88781845  0.59859725    -0.75800
O168        O  0.37719340  0.84741322  0.63129912    -0.79300
O169        O  0.42868027  0.79761919  0.52800768    -0.80000
C170        C  0.36947528  0.87140921  0.62756497     0.95300
O171        O  0.35150889  0.78627812  0.58447300    -0.77900
O172        O  0.41898865  0.91652216  0.53329088    -0.83100
C173        C  0.37865641  0.83495550  0.47460923     0.97900
C174        C  0.44945065  0.92505208  0.51992705     1.03800
O175        O  0.40634876  0.83304993  0.48031600    -0.78800
C176        C  0.32620649  0.78813366  0.57046032     1.02100
Fe177      Fe  0.41369152  0.59399098  0.60306161     1.65800
Fe178      Fe  0.48059566  0.61545995  0.54371463     1.73200
Fe179      Fe  0.39863535  0.54989245  0.52359275     1.54400
O180        O  0.37757561  0.51080180  0.56395218    -0.82500
O181        O  0.47228441  0.60759516  0.48955740    -0.80800
O182        O  0.39177902  0.54148369  0.61613473    -0.85000
O183        O  0.36495040  0.58331132  0.58466752    -0.79900
O184        O  0.43693292  0.53546843  0.51219510    -0.81600
O185        O  0.47235618  0.65846321  0.54359141    -0.84400
C186        C  0.34536459  0.56836854  0.55785277     0.96400
C187        C  0.37666335  0.51226651  0.59827244     1.03800
O188        O  0.43072480  0.58569420  0.55776095    -1.13400
O189        O  0.50175065  0.63063282  0.59398027    -0.75800
O190        O  0.45804882  0.60588788  0.63244969    -0.79300
O191        O  0.35573134  0.55753689  0.53122548    -0.80000
C192        C  0.49070883  0.62523172  0.62563954     0.95300
O193        O  0.43431394  0.64651172  0.58980356    -0.77900
O194        O  0.48648084  0.57133613  0.54343403    -0.83100
C195        C  0.44855405  0.60949314  0.47309070     0.97900
C196        C  0.46699720  0.54304464  0.52505901     1.03800
O197        O  0.41640619  0.58899667  0.48276272    -0.78800
C198        C  0.45374047  0.66620761  0.56456524     1.02100
Fe199      Fe  0.56599229  0.39908027  0.40256881     1.65800
Fe200      Fe  0.50648729  0.37420551  0.46886596     1.73200
Fe201      Fe  0.58734337  0.44516049  0.48131847     1.54400
O202        O  0.63054387  0.44180338  0.46394630    -0.82500
O203        O  0.49592883  0.41526587  0.47358380    -0.80800
O204        O  0.61298541  0.40316485  0.41837150    -0.85000
O205        O  0.59379417  0.45307304  0.39201507    -0.79900
O206        O  0.57919349  0.40791610  0.52075070    -0.81600
O207        O  0.48205844  0.35905661  0.41960439    -0.84400
C208        C  0.60642791  0.48241673  0.40959184     0.96400
C209        C  0.63679000  0.42494785  0.43962012     1.03800
O210        O  0.55352335  0.40724244  0.45017832    -1.13400
O211        O  0.51945469  0.33458120  0.46525867    -0.75800
O212        O  0.54041610  0.34400020  0.40994682    -0.79300
O213        O  0.60107021  0.48410813  0.44298911    -0.80000
C214        C  0.53199423  0.32605651  0.43841306     0.95300
O215        O  0.52084041  0.39452580  0.38048078    -0.77900
O216        O  0.52108625  0.38177148  0.52156621    -0.83100
C217        C  0.51537823  0.44453457  0.49052645     0.97900
C218        C  0.54947912  0.38581586  0.53434757     1.03800
O219        O  0.54718987  0.45474085  0.50035870    -0.78800
C220        C  0.48996763  0.36944298  0.38790343     1.02100
Fe221      Fe  0.16578483  0.58412355  0.59790800     1.65800
Fe222      Fe  0.13788455  0.59279383  0.51834093     1.73200
Fe223      Fe  0.12454393  0.51184857  0.54433919     1.54400
O224        O  0.17487130  0.51973058  0.55749719    -0.82500
O225        O  0.08436836  0.55722792  0.51310490    -0.80800
O226        O  0.20530922  0.57439924  0.58326378    -0.85000
O227        O  0.14423407  0.53883006  0.62775267    -0.79900
O228        O  0.14222752  0.51981349  0.49341058    -0.81600
O229        O  0.12694557  0.62031367  0.56003666    -0.84400
C230        C  0.12155424  0.50622260  0.62379272     0.96400
C231        C  0.20372453  0.54689451  0.56877866     1.03800
O232        O  0.14198525  0.56227980  0.55332514    -1.13400
O233        O  0.19156434  0.63035395  0.52006660    -0.75800
O234        O  0.19440321  0.63466359  0.57855446    -0.79300
O235        O  0.10466490  0.49407222  0.59493325    -0.80000
C236        C  0.20706029  0.64699104  0.54834552     0.95300
O237        O  0.12621310  0.59432075  0.61097196    -0.77900
O238        O  0.14949574  0.57038566  0.47309324    -0.83100
C239        C  0.06392602  0.52389202  0.51719035     0.97900
C240        C  0.15038422  0.54171077  0.46869985     1.03800
O241        O  0.07448628  0.50331370  0.52890590    -0.78800
C242        C  0.12223318  0.61706746  0.59397520     1.02100
Fe243      Fe  0.82056976  0.42150685  0.38866623     1.65800
Fe244      Fe  0.85929954  0.48882063  0.44899163     1.73200
Fe245      Fe  0.84643769  0.40644642  0.46772028     1.54400
O246        O  0.79414235  0.36645840  0.46091017    -0.82500
O247        O  0.90903310  0.49707876  0.46419045    -0.80800
O248        O  0.78923915  0.36976428  0.40289563    -0.85000
O249        O  0.85987749  0.41086192  0.37473998    -0.79900
O250        O  0.83126989  0.42356697  0.51454086    -0.81600
O251        O  0.88103721  0.51104284  0.40030546    -0.84400
C252        C  0.86743536  0.39027284  0.39131854     0.96400
C253        C  0.77900629  0.35281588  0.43140064     1.03800
O254        O  0.84250960  0.43922288  0.43535669    -1.13400
O255        O  0.80917560  0.48172502  0.43619803    -0.75800
O256        O  0.78077952  0.43091346  0.40340670    -0.79300
O257        O  0.86212708  0.38514583  0.42485079    -0.80000
C258        C  0.78115239  0.45623232  0.42149822     0.95300
O259        O  0.84509012  0.46904350  0.36268660    -0.77900
O260        O  0.84105314  0.47665667  0.49956899    -0.83100
C261        C  0.91927605  0.47619049  0.47547416     0.97900
C262        C  0.83212650  0.45269029  0.52226182     1.03800
O263        O  0.89892103  0.44271014  0.47777408    -0.78800
C264        C  0.86733104  0.50118833  0.36977609     1.02100
Fe265      Fe  0.50403808  0.26262748  0.76903626     1.65800
Fe266      Fe  0.46355927  0.28499022  0.70777566     1.73200
Fe267      Fe  0.47536553  0.21649973  0.69057129     1.54400
O268        O  0.52188591  0.21833084  0.70326119    -0.82500
O269        O  0.41200370  0.24304322  0.70677408    -0.80800
O270        O  0.54474209  0.25602119  0.74888989    -0.85000
O271        O  0.47545658  0.20909176  0.78043038    -0.79900
O272        O  0.50369874  0.25608455  0.65127875    -0.81600
O273        O  0.45745256  0.30202793  0.75765499    -0.84400
C274        C  0.45825790  0.17966086  0.76304396     0.96400
C275        C  0.54530230  0.23363999  0.72706485     1.03800
O276        O  0.47995975  0.25355185  0.72386014    -1.13400
O277        O  0.51632486  0.32618622  0.70772357    -0.75800
O278        O  0.53551194  0.31631144  0.75900390    -0.79300
O279        O  0.45155207  0.17753541  0.72961038    -0.80000
C280        C  0.53976542  0.33524052  0.73195432     0.95300
O281        O  0.46734521  0.27133220  0.79677936    -0.77900
O282        O  0.46542449  0.27312217  0.65494773    -0.83100
C283        C  0.40259920  0.21530244  0.68709028     0.97900
C284        C  0.49335866  0.27710429  0.64124184     1.03800
O285        O  0.42487087  0.20635969  0.67567691    -0.78800
C286        C  0.45870387  0.29432948  0.78957007     1.02100
Fe287      Fe  0.15707313  0.07676501  0.55888499     1.65800
Fe288      Fe  0.19638844  0.04810132  0.61468102     1.73200
Fe289      Fe  0.18354196  0.11702673  0.63885415     1.54400
O290        O  0.19566145  0.15360201  0.59662412    -0.82500
O291        O  0.17590531  0.03916194  0.66477101    -0.80800
O292        O  0.19674689  0.12635611  0.54579659    -0.85000
O293        O  0.12778717  0.09909091  0.57719076    -0.79900
O294        O  0.23683363  0.13575677  0.64551266    -0.81600
O295        O  0.14701089  0.00482032  0.59916003    -0.84400
C296        C  0.11512723  0.10082732  0.60716811     0.96400
C297        C  0.20039671  0.15373569  0.56266641     1.03800
O298        O  0.17982027  0.08087260  0.60432157    -1.13400
O299        O  0.21924297  0.05045741  0.56532838    -0.75800
O300        O  0.18024754  0.05246295  0.53040339    -0.79300
O301        O  0.13004483  0.10053510  0.63565767    -0.80000
C302        C  0.20406566  0.04466490  0.53550329     0.95300
O303        O  0.11711261  0.02810172  0.57340683    -0.77900
O304        O  0.24548930  0.08993172  0.63256694    -0.83100
C305        C  0.16839450  0.05460813  0.68928873     0.97900
C306        C  0.25652058  0.12199472  0.64334620     1.03800
O307        O  0.17079913  0.08471401  0.68453605    -0.78800
C308        C  0.11834243  0.00289383  0.58839416     1.02100
Fe309      Fe  0.73013452  0.24076350  0.77672786     1.65800
Fe310      Fe  0.70505799  0.17174989  0.71854319     1.73200
Fe311      Fe  0.77183979  0.25617537  0.69804616     1.54400
O312        O  0.75499410  0.29316991  0.70273389    -0.82500
O313        O  0.74856491  0.16699831  0.70223135    -0.80800
O314        O  0.74944408  0.29249976  0.76095841    -0.85000
O315        O  0.78076912  0.25509491  0.79109053    -0.79900
O316        O  0.73951288  0.23592245  0.65260899    -0.81600
O317        O  0.70639886  0.15157366  0.76770921    -0.84400
C318        C  0.80814777  0.27818111  0.77439267     0.96400
C319        C  0.75360174  0.30792311  0.73172584     1.03800
O320        O  0.73597235  0.22241333  0.73097651    -1.13400
O321        O  0.65979498  0.17473622  0.73263453    -0.75800
O322        O  0.68026262  0.22763942  0.76108570    -0.79300
O323        O  0.80801735  0.28166378  0.74054809    -0.80000
C324        C  0.65564306  0.19999764  0.74538657     0.95300
O325        O  0.70873728  0.19345720  0.80367755    -0.77900
O326        O  0.69692152  0.18188430  0.66798009    -0.83100
C327        C  0.78003184  0.18907854  0.69158036     0.97900
C328        C  0.71112309  0.20666365  0.64584597     1.03800
O329        O  0.79199383  0.22246304  0.68952246    -0.78800
C330        C  0.70117248  0.16166544  0.79788388     1.02100
Fe331      Fe  0.92112556  0.07991037  0.56539183     1.65800
Fe332      Fe  0.94828509  0.15277210  0.61848543     1.73200
Fe333      Fe  0.88317908  0.06965515  0.64502933     1.54400
O334        O  0.84462826  0.04126406  0.60413099    -0.82500
O335        O  0.95933612  0.14664629  0.66952585    -0.80800
O336        O  0.87031310  0.06549897  0.55206767    -0.85000
O337        O  0.90200105  0.02911524  0.58375103    -0.79900
O338        O  0.86304797  0.10351858  0.65232456    -0.81600
O339        O  0.99306706  0.14914914  0.60366781    -0.84400
C340        C  0.90058124  0.01637440  0.61394848     0.96400
C341        C  0.84327842  0.04364636  0.57008716     1.03800
O342        O  0.91708745  0.10136462  0.60972924    -1.13400
O343        O  0.94440015  0.16892139  0.56787211    -0.75800
O344        O  0.94253385  0.12516564  0.53539375    -0.79300
O345        O  0.90052424  0.03300301  0.64204642    -0.80000
C346        C  0.94981634  0.15708301  0.53878139     0.95300
O347        O  0.97086072  0.09361675  0.58101689    -0.77900
O348        O  0.90519325  0.15814544  0.63552448    -0.83100
C349        C  0.94691870  0.12321632  0.69315036     0.97900
C350        C  0.87442216  0.13659206  0.64828004     1.03800
O351        O  0.91840804  0.09331598  0.68852438    -0.78800
C352        C  0.99644057  0.12266632  0.59351625     1.02100
Fe353      Fe  0.74906222  0.49795713  0.77673141     1.65800
Fe354      Fe  0.82004535  0.53182100  0.72250343     1.73200
Fe355      Fe  0.74067242  0.52041387  0.69430616     1.54400
O356        O  0.70031785  0.46853787  0.70009410    -0.82500
O357        O  0.83078535  0.58113670  0.70208791    -0.80800
O358        O  0.69791084  0.46835694  0.75824000    -0.85000
O359        O  0.74034948  0.53967446  0.78590611    -0.79900
O360        O  0.76035428  0.50212404  0.65211309    -0.81600
O361        O  0.83913127  0.55761960  0.77098784    -0.84400
C362        C  0.71908595  0.54412663  0.76658670     0.96400
C363        C  0.68310257  0.45610756  0.72858890     1.03800
O364        O  0.77042510  0.51750317  0.73097395    -1.13400
O365        O  0.81020820  0.48172814  0.74110076    -0.75800
O366        O  0.75576138  0.45562176  0.76494398    -0.79300
O367        O  0.71640896  0.53754030  0.73292079    -0.80000
C368        C  0.78182606  0.45382621  0.75175414     0.95300
O369        O  0.79567059  0.52193780  0.80631029    -0.77900
O370        O  0.81076859  0.50901240  0.67312743    -0.83100
C371        C  0.81125276  0.59229810  0.68896184     0.97900
C372        C  0.78793729  0.49927219  0.64885062     1.03800
O373        O  0.77790200  0.57264292  0.68509128    -0.78800
C374        C  0.82810359  0.54441705  0.80121660     1.02100
Fe375      Fe  0.91145150  0.83337333  0.56715183     1.65800
Fe376      Fe  0.92829238  0.81556012  0.64907581     1.73200
Fe377      Fe  0.84655299  0.79615608  0.62593982     1.54400
O378        O  0.85802959  0.84862384  0.62499156    -0.82500
O379        O  0.88911926  0.76340893  0.66265413    -0.80800
O380        O  0.88332647  0.86092142  0.57151935    -0.85000
O381        O  0.87007652  0.78735450  0.54610904    -0.79900
O382        O  0.85596087  0.80045558  0.67991138    -0.81600
O383        O  0.95017081  0.79311446  0.61360344    -0.84400
C384        C  0.84102383  0.78638354  0.54428399     0.96400
C385        C  0.87315421  0.87045071  0.59965252     1.03800
O386        O  0.89633563  0.81483850  0.61365945    -1.13400
O387        O  0.97054331  0.86519109  0.63593481    -0.75800
O388        O  0.95539330  0.87884057  0.58468389    -0.79300
O389        O  0.82702363  0.78918949  0.57309890    -0.80000
C390        C  0.97743627  0.88522033  0.60929384     0.95300
O391        O  0.94126510  0.80970452  0.56050765    -0.77900
O392        O  0.91045698  0.84167895  0.68602858    -0.83100
C393        C  0.85944864  0.73880909  0.64956167     0.97900
C394        C  0.87807580  0.82908040  0.69501965     1.03800
O395        O  0.84033495  0.74569754  0.62908389    -0.78800
C396        C  0.95462104  0.79591443  0.57974656     1.02100
Fe397      Fe  0.48848328  0.75405948  0.72722843     1.65800
Fe398      Fe  0.52722244  0.82405474  0.78371429     1.73200
Fe399      Fe  0.51200421  0.74187862  0.80692871     1.54400
O400        O  0.45932093  0.70235729  0.80013482    -0.82500
O401        O  0.57657766  0.83172629  0.80021192    -0.80800
O402        O  0.46047583  0.70217281  0.74230428    -0.85000
O403        O  0.52899083  0.74502844  0.71444159    -0.79900
O404        O  0.49440945  0.76012022  0.85004554    -0.81600
O405        O  0.55001950  0.84356450  0.73446358    -0.84400
C406        C  0.53381895  0.72306169  0.73208948     0.96400
C407        C  0.44775977  0.68600321  0.77073468     1.03800
O408        O  0.51023845  0.77395732  0.77279370    -1.13400
O409        O  0.47745156  0.81680006  0.76817876    -0.75800
O410        O  0.44827113  0.76205531  0.74359332    -0.79300
O411        O  0.52811662  0.71921237  0.76576815    -0.80000
C412        C  0.44853212  0.78910997  0.75775882     0.95300
O413        O  0.51055883  0.80080688  0.69991675    -0.77900
O414        O  0.50689736  0.81420900  0.83430558    -0.83100
C415        C  0.58630443  0.81081258  0.81271377     0.97900
C416        C  0.49411893  0.78884726  0.85589950     1.03800
O417        O  0.56465195  0.77788126  0.81762296    -0.78800
C418        C  0.53440256  0.83280730  0.70487455     1.02100
Fe419      Fe  0.83372270  0.91048031  0.93926317     1.65800
Fe420      Fe  0.79037079  0.84500446  0.87789435     1.73200
Fe421      Fe  0.80688304  0.92811258  0.86189483     1.54400
O422        O  0.78522202  0.94587033  0.90200871    -0.82500
O423        O  0.79839674  0.85601669  0.82427205    -0.80800
O424        O  0.80894440  0.93888650  0.95166057    -0.85000
O425        O  0.87688620  0.95577048  0.92027938    -0.79900
O426        O  0.75551471  0.88944953  0.84572458    -0.81600
O427        O  0.84057865  0.85077863  0.87994678    -0.84400
C428        C  0.87877156  0.97900344  0.89934890     0.96400
C429        C  0.79209050  0.95105822  0.93536620     1.03800
O430        O  0.81007475  0.89483594  0.89349539    -1.13400
O431        O  0.78048553  0.82368745  0.92863422    -0.75800
O432        O  0.79405714  0.86815842  0.96611976    -0.79300
O433        O  0.85548592  0.97178035  0.87569070    -0.80000
C434        C  0.78320999  0.83556474  0.96025885     0.95300
O435        O  0.86166244  0.88448321  0.92922678    -0.77900
O436        O  0.73995919  0.83910781  0.87451563    -0.83100
C437        C  0.82179468  0.88320499  0.80816505     0.97900
C438        C  0.73196842  0.85871592  0.85655539     1.03800
O439        O  0.83144834  0.91446734  0.82027819    -0.78800
C440        C  0.86456004  0.86627002  0.90365520     1.02100
Fe441      Fe  0.25754134  0.50789712  0.72805360     1.65800
Fe442      Fe  0.28112972  0.46491305  0.78523242     1.73200
Fe443      Fe  0.21522717  0.48386215  0.80632526     1.54400
O444        O  0.23102976  0.53755254  0.80127546    -0.82500
O445        O  0.23751846  0.41715266  0.80236294    -0.80800
O446        O  0.23775522  0.53984347  0.74355059    -0.85000
O447        O  0.20666676  0.47073189  0.71297337    -0.79900
O448        O  0.24869531  0.49918065  0.85129760    -0.81600
O449        O  0.27889912  0.44147726  0.73545552    -0.84400
C450        C  0.17893775  0.46606715  0.72965821     0.96400
C451        C  0.23160717  0.55163098  0.77214896     1.03800
O452        O  0.25092018  0.48474305  0.77332838    -1.13400
O453        O  0.32691636  0.51236044  0.77104818    -0.75800
O454        O  0.30787983  0.54548814  0.74444506    -0.79300
O455        O  0.17874701  0.47033149  0.76366754    -0.80000
C456        C  0.33213368  0.54194034  0.75918077     0.95300
O457        O  0.27890968  0.48171347  0.70094855    -0.77900
O458        O  0.29004045  0.48586075  0.83558242    -0.83100
C459        C  0.20639419  0.40829842  0.81368924     0.97900
C460        C  0.27691631  0.49839261  0.85766075     1.03800
O461        O  0.19504823  0.43013793  0.81554338    -0.78800
C462        C  0.28516415  0.45685668  0.70578834     1.02100
Fe463      Fe  0.06964381  0.16563440  0.94598279     1.65800
Fe464      Fe  0.03790560  0.20323937  0.89182049     1.73200
Fe465      Fe  0.10502116  0.18887740  0.86425566     1.54400
O466        O  0.14422614  0.20266367  0.90411042    -0.82500
O467        O  0.02663006  0.18220015  0.84176270    -0.80800
O468        O  0.12044325  0.20601360  0.95613539    -0.85000
O469        O  0.09095058  0.13585046  0.92696871    -0.79900
O470        O  0.12317369  0.24219586  0.85677347    -0.81600
O471        O  0.99496384  0.15348443  0.90835233    -0.84400
C472        C  0.09240470  0.12234609  0.89734110     0.96400
C473        C  0.14665654  0.20897441  0.93785916     1.03800
O474        O  0.07093918  0.18648386  0.90040486    -1.13400
O475        O  0.04258833  0.22754237  0.94147017    -0.75800
O476        O  0.04798103  0.19042109  0.97587546    -0.79300
O477        O  0.08988312  0.13537022  0.86844107    -0.80000
C478        C  0.03954936  0.21387919  0.97157760     0.95300
O479        O  0.01906666  0.12451567  0.93430690    -0.77900
O480        O  0.07906826  0.25220254  0.87244267    -0.83100
C481        C  0.04028364  0.17329062  0.81676151     0.97900
C482        C  0.11019872  0.26259340  0.85970880     1.03800
O483        O  0.06988727  0.17448847  0.82047406    -0.78800
C484        C  0.99285589  0.12492218  0.92011014     1.02100
Fe485      Fe  0.24248701  0.74298850  0.73088270     1.65800
Fe486      Fe  0.17101502  0.71344833  0.78405790     1.73200
Fe487      Fe  0.25274627  0.78302326  0.81037215     1.54400
O488        O  0.29191293  0.76934581  0.80824464    -0.82500
O489        O  0.16310167  0.75486263  0.80289457    -0.80800
O490        O  0.29351352  0.76462619  0.74979351    -0.85000
O491        O  0.25392616  0.79313789  0.71763246    -0.79900
O492        O  0.23138466  0.74833268  0.85401357    -0.81600
O493        O  0.15310912  0.71693797  0.73431886    -0.84400
C494        C  0.27511547  0.82123188  0.73536089     0.96400
C495        C  0.30757023  0.76845516  0.77998422     1.03800
O496        O  0.22163806  0.74673273  0.77533884    -1.13400
O497        O  0.17619458  0.66961965  0.76733980    -0.75800
O498        O  0.23152563  0.69356350  0.74562925    -0.79300
O499        O  0.27861044  0.82094419  0.76932944    -0.80000
C500        C  0.20303313  0.66711263  0.75706583     0.95300
O501        O  0.19638967  0.71933519  0.70136122    -0.77900
O502        O  0.18029243  0.70320490  0.83375437    -0.83100
C503        C  0.18363413  0.78701421  0.81375749     0.97900
C504        C  0.20356560  0.71779055  0.85763632     1.03800
O505        O  0.21704779  0.80060404  0.81646500    -0.78800
C506        C  0.16446415  0.71155617  0.70502890     1.02100
Fe507      Fe  0.08000050  0.92921967  0.93733453     1.65800
Fe508      Fe  0.14911061  0.95908518  0.88128127     1.73200
Fe509      Fe  0.06607504  0.89359836  0.85559591     1.54400
O510        O  0.04030398  0.85456935  0.89525187    -0.82500
O511        O  0.13996664  0.97281766  0.83323966    -0.80800
O512        O  0.06814902  0.87827577  0.94685049    -0.85000
O513        O  0.02824910  0.90808099  0.92069638    -0.79900
O514        O  0.09927665  0.87341891  0.84651717    -0.81600
O515        O  0.14532081  0.00298487  0.90186209    -0.84400
C516        C  0.01247823  0.90526288  0.89186582     0.96400
C517        C  0.04438299  0.85206672  0.92867917     1.03800
O518        O  0.09881556  0.92711807  0.89103563    -1.13400
O519        O  0.16726308  0.95087636  0.92842426    -0.75800
O520        O  0.12765926  0.95125044  0.96469022    -0.79300
O521        O  0.02895056  0.90988362  0.86262471    -0.80000
C522        C  0.15863932  0.95694348  0.95875225     0.95300
O523        O  0.09062356  0.97909462  0.92529309    -0.77900
O524        O  0.15442343  0.91712273  0.85919306    -0.83100
C525        C  0.11652992  0.95970459  0.80943033     0.97900
C526        C  0.13241552  0.88519227  0.84874598     1.03800
O527        O  0.08788394  0.92972643  0.81281327    -0.78800
C528        C  0.11872437  0.00557223  0.91306991     1.02100
Fe529      Fe  0.58841706  0.42484449  0.89056532     1.65800
Fe530      Fe  0.61843509  0.49621802  0.94634822     1.73200
Fe531      Fe  0.55152639  0.41401629  0.97155552     1.54400
O532        O  0.51190535  0.38923463  0.93132439    -0.82500
O533        O  0.62866870  0.48927856  0.99724661    -0.80800
O534        O  0.53805481  0.41333667  0.87932897    -0.85000
O535        O  0.56808774  0.37362510  0.90717145    -0.79900
O536        O  0.53534015  0.45047038  0.98182810    -0.81600
O537        O  0.66106223  0.48901332  0.93128918    -0.84400
C538        C  0.56201171  0.35751136  0.93609455     0.96400
C539        C  0.51076007  0.39195521  0.89735858     1.03800
O540        O  0.58586018  0.44531305  0.93635195    -1.13400
O541        O  0.61504719  0.51434277  0.89725294    -0.75800
O542        O  0.61104580  0.47129095  0.86243169    -0.79300
O543        O  0.56263934  0.37311174  0.96524641    -0.80000
C544        C  0.61976664  0.50342206  0.86753452     0.95300
O545        O  0.63751000  0.43495165  0.90409824    -0.77900
O546        O  0.57736677  0.50422573  0.96308598    -0.83100
C547        C  0.61750951  0.46473510  0.01950310     0.97900
C548        C  0.54706805  0.48337802  0.97676731     1.03800
O549        O  0.58904736  0.43481392  0.01385416    -0.78800
C550        C  0.66261548  0.46169056  0.92015320     1.02100
Fe551      Fe  0.40716268  0.58908674  0.09675781     1.65800
Fe552      Fe  0.37974284  0.52118345  0.03909837     1.73200
Fe553      Fe  0.44592141  0.60120882  0.01599313     1.54400
O554        O  0.44118444  0.64564749  0.02740958    -0.82500
O555        O  0.42215492  0.51280499  0.03782091    -0.80800
O556        O  0.40958694  0.63417442  0.07759530    -0.85000
O557        O  0.46081436  0.61671148  0.10460646    -0.79900
O558        O  0.40388469  0.58452713  0.97854879    -0.81600
O559        O  0.36510551  0.50317707  0.09121748    -0.84400
C560        C  0.48879463  0.62626358  0.08625546     0.96400
C561        C  0.42678679  0.65447185  0.05219025     1.03800
O562        O  0.41195206  0.57125333  0.05122569    -1.13400
O563        O  0.33970305  0.53336842  0.03826803    -0.75800
O564        O  0.35161574  0.56261492  0.09025468    -0.79300
O565        O  0.48840306  0.62084952  0.05250567    -0.80000
C566        C  0.33243359  0.54993049  0.06233768     0.95300
O567        O  0.40768673  0.54738702  0.12089801    -0.77900
O568        O  0.38766748  0.52955490  0.98559887    -0.83100
C569        C  0.44844966  0.52990607  0.01662971     0.97900
C570        C  0.38307193  0.55197073  0.97002614     1.03800
O571        O  0.45580788  0.55967515  0.00291215    -0.78800
C572        C  0.38012436  0.51723861  0.12055925     1.02100
Fe573      Fe  0.57772570  0.17765926  0.89546073     1.65800
Fe574      Fe  0.58513292  0.14991530  0.97611310     1.73200
Fe575      Fe  0.50472296  0.13542374  0.94747184     1.54400
O576        O  0.51202353  0.18523949  0.93322642    -0.82500
O577        O  0.54787644  0.09753097  0.98536175    -0.80800
O578        O  0.56705024  0.21681394  0.90994034    -0.85000
O579        O  0.53244670  0.15384096  0.86451599    -0.79900
O580        O  0.51044436  0.15332818  0.99894823    -0.81600
O581        O  0.60931328  0.13311857  0.93608998    -0.84400
C582        C  0.50054791  0.12931515  0.86791490     0.96400
C583        C  0.53924945  0.21460724  0.92377852     1.03800
O584        O  0.55562102  0.15374280  0.93982128    -1.13400
O585        O  0.62694339  0.20159590  0.97262468    -0.75800
O586        O  0.62814539  0.20872341  0.91489538    -0.79300
O587        O  0.48910684  0.11342218  0.89695394    -0.80000
C588        C  0.64328054  0.21746063  0.94475800     0.95300
O589        O  0.58977857  0.13873542  0.88282644    -0.77900
O590        O  0.56404425  0.16784973  0.01774585    -0.83100
C591        C  0.51511304  0.07658488  0.97932558     0.97900
C592        C  0.53421423  0.16644924  0.02246873     1.03800
O593        O  0.49539583  0.08606626  0.96401822    -0.78800
C594        C  0.60780381  0.12953077  0.90181816     1.02100
Fe595      Fe  0.41587323  0.83057228  0.09689793     1.65800
Fe596      Fe  0.48062341  0.87410948  0.03817251     1.73200
Fe597      Fe  0.39852980  0.85767038  0.02089700     1.54400
O598        O  0.35533643  0.80896262  0.03389556    -0.82500
O599        O  0.48696883  0.92458675  0.04014223    -0.80800
O600        O  0.37234704  0.78594572  0.07610824    -0.85000
O601        O  0.38476109  0.85235472  0.10867239    -0.79900
O602        O  0.41299043  0.83221810  0.98085447    -0.81600
O603        O  0.50119629  0.87744570  0.08976682    -0.84400
C604        C  0.37321913  0.87008710  0.09309383     0.96400
C605        C  0.34868822  0.78464189  0.05591408     1.03800
O606        O  0.43105220  0.85437248  0.05260025    -1.13400
O607        O  0.47080413  0.82237327  0.03411685    -0.75800
O608        O  0.44453721  0.80460902  0.08722123    -0.79300
O609        O  0.38039854  0.87954373  0.06057264    -0.80000
C610        C  0.45672362  0.79910679  0.05819986     0.95300
O611        O  0.45751113  0.87461780  0.12066806    -0.77900
O612        O  0.46852649  0.87240800  0.98509392    -0.83100
C613        C  0.46848163  0.93255482  0.02014031     0.97900
C614        C  0.44485567  0.84417253  0.97052055     1.03800
O615        O  0.43833903  0.90918249  0.00711506    -0.78800
C616        C  0.48681291  0.87574272  0.11983544     1.02100
Fe617      Fe  0.17199343  0.59445767  0.10000791     1.65800
Fe618      Fe  0.12737209  0.62224831  0.05013283     1.73200
Fe619      Fe  0.14148033  0.55519409  0.01965230     1.54400
O620        O  0.19479021  0.56983957  0.01994949    -0.82500
O621        O  0.07836763  0.58048794  0.03502916    -0.80800
O622        O  0.20366456  0.57652097  0.07800836    -0.85000
O623        O  0.13521314  0.54287689  0.11259935    -0.79900
O624        O  0.15368699  0.59014837  0.97674186    -0.81600
O625        O  0.10730505  0.61788913  0.10091778    -0.84400
C626        C  0.12648411  0.51515982  0.09319110     0.96400
C627        C  0.21295049  0.57245541  0.04704620     1.03800
O628        O  0.14647922  0.59044371  0.05641914    -1.13400
O629        O  0.17617389  0.66681101  0.06365961    -0.75800
O630        O  0.20891100  0.64548922  0.08660351    -0.79300
O631        O  0.12944123  0.51638831  0.05907389    -0.80000
C632        C  0.20571846  0.67059943  0.07379337     0.95300
O633        O  0.14769466  0.61477625  0.13246018    -0.77900
O634        O  0.14400796  0.63226074  0.99880563    -0.83100
C635        C  0.06773667  0.54962908  0.02156720     0.97900
C636        C  0.15337388  0.61912236  0.97356852     1.03800
O637        O  0.08795915  0.53704346  0.01488383    -0.78800
C638        C  0.12340863  0.62226938  0.12984542     1.02100
Fe639      Fe  0.82308444  0.41151803  0.90231053     1.65800
Fe640      Fe  0.86177265  0.38925321  0.96471677     1.73200
Fe641      Fe  0.84641524  0.45562652  0.98200955     1.54400
O642        O  0.86810217  0.49543079  0.94298570    -0.82500
O643        O  0.86161401  0.40243674  0.01751393    -0.80800
O644        O  0.85252307  0.46488350  0.89076441    -0.85000
O645        O  0.78218894  0.41860978  0.91826553    -0.79900
O646        O  0.89832625  0.46860239  0.99538443    -0.81600
O647        O  0.80952237  0.34782417  0.96601189    -0.84400
C648        C  0.77706914  0.43566681  0.94303757     0.96400
C649        C  0.86626163  0.49407349  0.90882080     1.03800
O650        O  0.84418464  0.41976257  0.94869504    -1.13400
O651        O  0.86601196  0.36957668  0.91518778    -0.75800
O652        O  0.86140133  0.40425401  0.87762202    -0.79300
O653        O  0.79713941  0.44863418  0.97003257    -0.80000
C654        C  0.86624961  0.37866719  0.88348852     0.95300
O655        O  0.79106991  0.35776636  0.91391218    -0.77900
O656        O  0.91225423  0.43253256  0.96369619    -0.83100
C657        C  0.83383179  0.39726631  0.03255282     0.97900
C658        C  0.92095889  0.46044937  0.98297833     1.03800
O659        O  0.82103792  0.41610577  0.02215170    -0.78800
C660        C  0.78625772  0.33897804  0.94147401     1.02100
Fe661      Fe  0.91913157  0.84464323  0.06529438     1.65800
Fe662      Fe  0.94462725  0.79648122  0.11150743     1.73200
Fe663      Fe  0.88017400  0.81238729  0.14338436     1.54400
O664        O  0.89798527  0.86656540  0.14630318    -0.82500
O665        O  0.90233811  0.74750996  0.12812259    -0.80800
O666        O  0.89901341  0.87426993  0.08845906    -0.85000
O667        O  0.86914459  0.80751415  0.04972415    -0.79900
O668        O  0.91490770  0.82048860  0.18689051    -0.81600
O669        O  0.93661481  0.77620347  0.05992217    -0.84400
C670        C  0.84173577  0.80089081  0.06795905     0.96400
C671        C  0.89810729  0.88435189  0.12010820     1.03800
O672        O  0.91427311  0.81700787  0.10694428    -1.13400
O673        O  0.98916201  0.84531683  0.09754815    -0.75800
O674        O  0.96821820  0.88114729  0.08289425    -0.79300
O675        O  0.84259361  0.80395370  0.10233302    -0.80000
C676        C  0.99294970  0.87614814  0.09300289     0.95300
O677        O  0.94166576  0.82264823  0.03245479    -0.77900
O678        O  0.95794091  0.81427968  0.16258199    -0.83100
C679        C  0.87120561  0.73755857  0.14018212     0.97900
C680        C  0.94468352  0.82141824  0.18926701     1.03800
O681        O  0.85922396  0.75850778  0.14493255    -0.78800
C682        C  0.94536438  0.79568401  0.03293914     1.02100
Fe683      Fe  0.73565307  0.49564578  0.27428280     1.65800
Fe684      Fe  0.70493089  0.53850050  0.22583288     1.73200
Fe685      Fe  0.77106366  0.52456995  0.19443987     1.54400
O686        O  0.81094875  0.53872056  0.23447791    -0.82500
O687        O  0.69253646  0.52104547  0.17417451    -0.80800
O688        O  0.78518229  0.53584142  0.28743131    -0.85000
O689        O  0.75836752  0.46753614  0.25310003    -0.79900
O690        O  0.78781377  0.57734273  0.18860681    -0.81600
O691        O  0.66256075  0.48819787  0.24006808    -0.84400
C692        C  0.75969133  0.45632591  0.22212338     0.96400
C693        C  0.81256352  0.54320149  0.26870748     1.03800
O694        O  0.73746366  0.52035414  0.23128202    -1.13400
O695        O  0.71074238  0.55898691  0.27740835    -0.75800
O696        O  0.71137667  0.51613288  0.30654025    -0.79300
O697        O  0.75768313  0.47169892  0.19495495    -0.80000
C698        C  0.70434811  0.54085924  0.30518076     0.95300
O699        O  0.68684088  0.45625234  0.25860540    -0.77900
O700        O  0.74570240  0.58831785  0.20928055    -0.83100
C701        C  0.70431650  0.50957014  0.14956941     0.97900
C702        C  0.77588721  0.59817259  0.19477539     1.03800
O703        O  0.73348201  0.50956583  0.15286074    -0.78800
C704        C  0.66090088  0.45863339  0.24703659     1.02100
Fe705      Fe  0.90909185  0.07583573  0.06852309     1.65800
Fe706      Fe  0.84370860  0.04970834  0.12918144     1.73200
Fe707      Fe  0.92419368  0.11642413  0.15008527     1.54400
O708        O  0.96761414  0.10982608  0.14053695    -0.82500
O709        O  0.83500016  0.09242306  0.12973244    -0.80800
O710        O  0.95797859  0.08578383  0.08607849    -0.85000
O711        O  0.93217079  0.12942322  0.05851387    -0.79900
O712        O  0.90758995  0.07490983  0.18861441    -0.81600
O713        O  0.82241515  0.03244852  0.07872341    -0.84400
C714        C  0.94774769  0.15770384  0.07790720     0.96400
C715        C  0.97775649  0.09979023  0.11302562     1.03800
O716        O  0.89272339  0.08197217  0.11475042    -1.13400
O717        O  0.85694576  0.00988204  0.12956030    -0.75800
O718        O  0.88759856  0.02153379  0.07838029    -0.79300
O719        O  0.94588207  0.15750416  0.11214808    -0.80000
C720        C  0.87439534  0.00279213  0.10626831     0.95300
O721        O  0.86410391  0.06660222  0.04144363    -0.77900
O722        O  0.85316317  0.05939169  0.18274824    -0.83100
C723        C  0.85356952  0.12112917  0.14826772     0.97900
C724        C  0.87542167  0.05392992  0.19736196     1.03800
O725        O  0.88391300  0.12936696  0.16167342    -0.78800
C726        C  0.83243169  0.04237837  0.04731624     1.02100
Fe727      Fe  0.75323693  0.26439218  0.26994850     1.65800
Fe728      Fe  0.81212301  0.29015363  0.20265252     1.73200
Fe729      Fe  0.72980352  0.22314989  0.18865687     1.54400
O730        O  0.71141404  0.18319510  0.22723858    -0.82500
O731        O  0.79893343  0.28209265  0.15002563    -0.80800
O732        O  0.73174541  0.21091011  0.28026871    -0.85000
O733        O  0.70287251  0.25346525  0.25865735    -0.79900
O734        O  0.76811160  0.20946068  0.17151941    -0.81600
O735        O  0.79960574  0.33032736  0.20669436    -0.84400
C736        C  0.68086788  0.24030243  0.23337279     0.96400
C737        C  0.71259684  0.18291453  0.26136371     1.03800
O738        O  0.76471754  0.25820463  0.22128677    -1.13400
O739        O  0.83846786  0.30761607  0.25041836    -0.75800
O740        O  0.80088403  0.27445713  0.29121350    -0.79300
O741        O  0.68843092  0.23106362  0.20372591    -0.80000
C742        C  0.83153630  0.29881245  0.28243062     0.95300
O743        O  0.77247416  0.31850564  0.26014739    -0.77900
O744        O  0.82021097  0.24709088  0.19827103    -0.83100
C745        C  0.77314097  0.28274489  0.13666244     0.97900
C746        C  0.79966737  0.21792197  0.18120565     1.03800
O747        O  0.74231199  0.26240300  0.14917211    -0.78800
C748        C  0.78420721  0.33754383  0.23218360     1.02100
Fe749      Fe  0.49915431  0.25038082  0.28341886     1.65800
Fe750      Fe  0.45997644  0.17867086  0.22835465     1.73200
Fe751      Fe  0.47328400  0.25925380  0.20274266     1.54400
O752        O  0.45681164  0.28282558  0.24349083    -0.82500
O753        O  0.47851438  0.18547678  0.17755059    -0.80800
O754        O  0.45772088  0.25793584  0.29489296    -0.85000
O755        O  0.52765712  0.30187294  0.26659256    -0.79900
O756        O  0.42083417  0.22240282  0.19303179    -0.81600
O757        O  0.51085623  0.18844462  0.24391716    -0.84400
C758        C  0.53907926  0.31687270  0.23720302     0.96400
C759        C  0.45096937  0.27852377  0.27723313     1.03800
O760        O  0.47700749  0.22904822  0.23780271    -1.13400
O761        O  0.43791674  0.16148673  0.27803888    -0.75800
O762        O  0.47841082  0.20416903  0.31178928    -0.79300
O763        O  0.52530384  0.30021098  0.20836016    -0.80000
C764        C  0.45501238  0.17198166  0.30680655     0.95300
O765        O  0.54013640  0.24337323  0.26967865    -0.77900
O766        O  0.41004547  0.16884482  0.21043723    -0.83100
C767        C  0.49049472  0.20945318  0.15462703     0.97900
C768        C  0.40006268  0.18923129  0.19705797     1.03800
O769        O  0.49058596  0.23873732  0.15989949    -0.78800
C770        C  0.53937995  0.21635388  0.25509043     1.02100
Fe771      Fe  0.15578992  0.08399401  0.06156177     1.65800
Fe772      Fe  0.19830867  0.15066214  0.12248762     1.73200
Fe773      Fe  0.18546665  0.07030619  0.13960184     1.54400
O774        O  0.13710222  0.02541725  0.13034305    -0.82500
O775        O  0.25026902  0.16043301  0.12309903    -0.80800
O776        O  0.11760210  0.03556718  0.08038613    -0.85000
O777        O  0.18693352  0.06240991  0.04797793    -0.79900
O778        O  0.15956427  0.08430249  0.17976433    -0.81600
O779        O  0.20365662  0.17206286  0.07286521    -0.84400
C780        C  0.20290340  0.04955251  0.06504819     0.96400
C781        C  0.11465658  0.01550464  0.10555821     1.03800
O782        O  0.18086839  0.10154595  0.10648558    -1.13400
O783        O  0.14515602  0.13847365  0.12363638    -0.75800
O784        O  0.12224757  0.10310496  0.07487915    -0.79300
O785        O  0.20699304  0.05241311  0.09906002    -0.80000
C786        C  0.11972611  0.12033962  0.10166383     0.95300
O787        O  0.18890786  0.12914962  0.03307167    -0.77900
O788        O  0.19744028  0.14007046  0.17524223    -0.83100
C789        C  0.25924997  0.14213345  0.14212545     0.97900
C790        C  0.17010522  0.11623984  0.18966533     1.03800
O791        O  0.23682162  0.11103166  0.15312194    -0.78800
C792        C  0.19927062  0.16142643  0.04083014     1.02100
C793        C  0.31826898  0.14545657  0.13754972    -0.02700
C794        C  0.29650227  0.15698503  0.15411062     0.07000
C795        C  0.30810842  0.17751656  0.18594096    -0.02800
C796        C  0.34128787  0.18670234  0.20081573    -0.02800
C797        C  0.36295628  0.17481079  0.18449559     0.07100
C798        C  0.35131470  0.15430857  0.15263050    -0.03000
Br799      Br  0.38142861  0.13969017  0.12880224    -0.01500
Br800      Br  0.30278215  0.11791395  0.09375089    -0.01600
Br801      Br  0.35687985  0.21530129  0.24401043    -0.01600
Br802      Br  0.27804037  0.19235619  0.20968728    -0.01600
C803        C  0.62905740  0.24575496  0.21421332    -0.02700
C804        C  0.64465786  0.23455065  0.23947098     0.07000
C805        C  0.62547229  0.21810921  0.27096859    -0.02800
C806        C  0.59008375  0.21012242  0.27530390    -0.02800
C807        C  0.57415668  0.21959513  0.24888478     0.07100
C808        C  0.59435450  0.23908705  0.21940897    -0.03000
Br809      Br  0.57546148  0.25934406  0.18753623    -0.01500
Br810      Br  0.65633752  0.27391577  0.17457564    -0.01600
Br811      Br  0.56405243  0.18877394  0.31848392    -0.01600
Br812      Br  0.64752642  0.20795567  0.30931141    -0.01600
C813        C  0.02750721  0.09297229  0.13757512    -0.02700
C814        C  0.01464875  0.10598316  0.11121429     0.07000
C815        C  0.03721766  0.12461615  0.08234164    -0.02800
C816        C  0.07212914  0.13089620  0.08030852    -0.02800
C817        C  0.08500654  0.11823074  0.10688520     0.07100
C818        C  0.06226513  0.09856757  0.13509410    -0.03000
Br819      Br  0.07686086  0.07536659  0.16783898    -0.01500
Br820      Br  0.99629911  0.06426673  0.17500510    -0.01600
Br821      Br  0.10220974  0.15600836  0.04028630    -0.01600
Br822      Br  0.02101165  0.14165523  0.04481656    -0.01600
C823        C  0.80535204  0.13273137  0.17120586    -0.02700
C824        C  0.83922050  0.14565581  0.15554963     0.07000
C825        C  0.85949062  0.18229664  0.14742174    -0.02800
C826        C  0.84636262  0.20558964  0.15516772    -0.02800
C827        C  0.81290314  0.19286485  0.17170076     0.07100
C828        C  0.79224872  0.15603139  0.17909261    -0.03000
Br829      Br  0.74632904  0.13709010  0.20152821    -0.01500
Br830      Br  0.77751857  0.08326329  0.18407043    -0.01600
Br831      Br  0.87342038  0.25465960  0.14070945    -0.01600
Br832      Br  0.90487094  0.20079739  0.12410325    -0.01600
C833        C  0.79260947  0.42517090  0.20184322    -0.02700
C834        C  0.76336905  0.42433753  0.21921472     0.07000
C835        C  0.74006559  0.39439953  0.23905125    -0.02800
C836        C  0.74659129  0.36621175  0.24297317    -0.02800
C837        C  0.77792300  0.36824131  0.22861304     0.07100
C838        C  0.80115158  0.39847917  0.20829763    -0.03000
Br839      Br  0.84653621  0.40591065  0.19197838    -0.01500
Br840      Br  0.82047049  0.46218247  0.16848120    -0.01600
Br841      Br  0.71061962  0.32509278  0.26745357    -0.01600
Br842      Br  0.69770784  0.39120871  0.25990495    -0.01600
C843        C  0.57382502  0.37754151  0.26774198    -0.02700
C844        C  0.56886977  0.35470378  0.23768641     0.07000
C845        C  0.59374860  0.36836705  0.20926127    -0.02800
C846        C  0.62440049  0.40218965  0.21279763    -0.02800
C847        C  0.62757894  0.42495411  0.24156419     0.07100
C848        C  0.60131551  0.41322987  0.26782249    -0.03000
Br849      Br  0.60408448  0.44603681  0.30476939    -0.01500
Br850      Br  0.54602401  0.36135439  0.31096911    -0.01600
Br851      Br  0.66287965  0.41686626  0.17885427    -0.01600
Br852      Br  0.58793711  0.34165919  0.16561971    -0.01600
C853        C  0.05058892  0.92277955  0.07006072    -0.02700
C854        C  0.02740341  0.90820276  0.09892818     0.07000
C855        C  0.03373975  0.92797441  0.13101402    -0.02800
C856        C  0.06271446  0.96289581  0.13381817    -0.02800
C857        C  0.08507145  0.97828216  0.10424238     0.07100
C858        C  0.07941501  0.95764280  0.07277483    -0.03000
Br859      Br  0.11125828  0.97666894  0.03330427    -0.01500
Br860      Br  0.04125693  0.89551822  0.02614298    -0.01600
Br861      Br  0.06985891  0.99014644  0.17721385    -0.01600
Br862      Br  0.00148866  0.90815937  0.17042017    -0.01600
C863        C  0.85895008  0.94369337  0.13441633    -0.02700
C864        C  0.88138417  0.97276612  0.11223750     0.07000
C865        C  0.91257796  0.97427040  0.09791108    -0.02800
C866        C  0.91995827  0.94701743  0.10452780    -0.02800
C867        C  0.89649048  0.91744362  0.12470170     0.07100
C868        C  0.86757508  0.91725575  0.14195531    -0.03000
Br869      Br  0.84012991  0.88114280  0.17641833    -0.01500
Br870      Br  0.81373905  0.93632695  0.15097708    -0.01600
Br871      Br  0.96363672  0.95072890  0.08702436    -0.01600
Br872      Br  0.94625126  0.01230167  0.06799225    -0.01600
C873        C  0.83439045  0.65446166  0.19508595    -0.02700
C874        C  0.79888871  0.63519927  0.18320408     0.07000
C875        C  0.78782616  0.64882074  0.15564229    -0.02800
C876        C  0.81241950  0.68100618  0.13942837    -0.02800
C877        C  0.84779050  0.70054550  0.15173280     0.07100
C878        C  0.85852256  0.68725733  0.17985751    -0.03000
Br879      Br  0.90557760  0.71489768  0.19940525    -0.01500
Br880      Br  0.84986219  0.63636968  0.23315819    -0.01600
Br881      Br  0.79815129  0.69760285  0.09915650    -0.01600
Br882      Br  0.73932218  0.62289924  0.13923547    -0.01600
C883        C  0.82421493  0.33914904  0.05837598    -0.02700
C884        C  0.81655672  0.36755170  0.05947172     0.07000
C885        C  0.79095665  0.36528281  0.08473899    -0.02800
C886        C  0.77377827  0.33578636  0.10793896    -0.02800
C887        C  0.78140028  0.30777550  0.10629353     0.07100
C888        C  0.80540233  0.30911795  0.08007190    -0.03000
Br889      Br  0.81204157  0.26851483  0.07346836    -0.01500
Br890      Br  0.86173032  0.34004510  0.02911262    -0.01600
Br891      Br  0.74032962  0.33440966  0.14250319    -0.01600
Br892      Br  0.77986392  0.40293977  0.08892345    -0.01600
C893        C  0.96808422  0.49153721  0.02928077    -0.02700
C894        C  0.95847928  0.48371971  0.99294096     0.07000
C895        C  0.98479122  0.49853558  0.96628242    -0.02800
C896        C  0.02056502  0.52048264  0.97585589    -0.02800
C897        C  0.03015240  0.52753029  0.01204358     0.07100
C898        C  0.00396679  0.51331564  0.03877199    -0.03000
Br899      Br  0.01751347  0.52265013  0.08835538    -0.01500
Br900      Br  0.93250446  0.47148981  0.06636326    -0.01600
Br901      Br  0.05649653  0.54219073  0.93938745    -0.01600
Br902      Br  0.97180302  0.49046778  0.91659555    -0.01600
C903        C  0.29710301  0.74477854  0.09520857    -0.02700
C904        C  0.31125259  0.75571509  0.06039613     0.07000
C905        C  0.28777022  0.74321058  0.03096543    -0.02800
C906        C  0.25136928  0.71927916  0.03623152    -0.02800
C907        C  0.23866553  0.70519550  0.07011349     0.07100
C908        C  0.26089635  0.71982743  0.09973368    -0.03000
Br909      Br  0.23985529  0.70771124  0.14656039    -0.01500
Br910      Br  0.32573697  0.76424618  0.13760092    -0.01600
Br911      Br  0.21880367  0.70799195  0.99756658    -0.01600
Br912      Br  0.30493850  0.75666849  0.98283465    -0.01600
C913        C  0.49335398  0.20652862  0.08740578    -0.02700
C914        C  0.50434384  0.20152675  0.12076801     0.07000
C915        C  0.52476644  0.18427358  0.12160860    -0.02800
C916        C  0.53652417  0.17531262  0.08978492    -0.02800
C917        C  0.52551394  0.18020068  0.05624898     0.07100
C918        C  0.50278396  0.19507586  0.05558104    -0.03000
Br919      Br  0.48212429  0.19892299  0.01175912    -0.01500
Br920      Br  0.46126398  0.22497250  0.08547506    -0.01600
Br921      Br  0.56508809  0.15296877  0.09300150    -0.01600
Br922      Br  0.53486591  0.16940865  0.16595035    -0.01600
C923        C  0.73865925  0.28139844  0.91576444    -0.02700
C924        C  0.75154287  0.30575012  0.94460166     0.07000
C925        C  0.72937061  0.30027801  0.97436181    -0.02800
C926        C  0.69455411  0.27084433  0.97544730    -0.02800
C927        C  0.68113407  0.24679231  0.94606296     0.07100
C928        C  0.70402727  0.25196602  0.91663694    -0.03000
Br929      Br  0.68957667  0.21885629  0.87702687    -0.01500
Br930      Br  0.76821886  0.28876836  0.87420427    -0.01600
Br931      Br  0.66518848  0.26578492  0.01652957    -0.01600
Br932      Br  0.74454287  0.33549544  0.01177763    -0.01600
C933        C  0.49538897  0.01347194  0.96360821    -0.02700
C934        C  0.50033411  0.03923285  0.98974964     0.07000
C935        C  0.49580915  0.03025094  0.02607169    -0.02800
C936        C  0.48771845  0.99597617  0.03628754    -0.02800
C937        C  0.48208188  0.96992255  0.01006567     0.07100
C938        C  0.48573658  0.97875282  0.97361927    -0.03000
Br939      Br  0.47914418  0.94386036  0.93716713    -0.01500
Br940      Br  0.50301926  0.02638792  0.91408927    -0.01600
Br941      Br  0.48370550  0.98452699  0.08611807    -0.01600
Br942      Br  0.49855831  0.06422420  0.06163306    -0.01600
C943        C  0.30174695  0.58591947  0.07358940    -0.02700
C944        C  0.30166123  0.55591585  0.05720882     0.07000
C945        C  0.27358764  0.53410360  0.03312912    -0.02800
C946        C  0.24641774  0.54184165  0.02622946    -0.02800
C947        C  0.24586283  0.57031032  0.04434238     0.07100
C948        C  0.27484379  0.59353382  0.06599056    -0.03000
Br949      Br  0.27880451  0.63772514  0.08350344    -0.01500
Br950      Br  0.33727454  0.61757097  0.10761327    -0.01600
Br951      Br  0.21032360  0.51359694  0.99138198    -0.01600
Br952      Br  0.26933597  0.49128728  0.01145881    -0.01600
C953        C  0.47045274  0.75263321  0.07505208    -0.02700
C954        C  0.45256394  0.76361239  0.05257955     0.07000
C955        C  0.42493536  0.73827256  0.03052599    -0.02800
C956        C  0.41558163  0.70218195  0.03080111    -0.02800
C957        C  0.43344086  0.69129482  0.05347476     0.07100
C958        C  0.45918696  0.71626803  0.07722332    -0.03000
Br959      Br  0.47469258  0.70008394  0.11634156    -0.01500
Br960      Br  0.51124810  0.78775938  0.10157334    -0.01600
Br961      Br  0.37480601  0.66685518  0.00477521    -0.01600
Br962      Br  0.39847390  0.75246559  0.00146417    -0.01600
C963        C  0.62395165  0.46147632  0.08639601    -0.02700
C964        C  0.63984227  0.47271038  0.05260957     0.07000
C965        C  0.67762043  0.49532683  0.05105930    -0.02800
C966        C  0.69850545  0.50606784  0.08238729    -0.02800
C967        C  0.68238536  0.49578875  0.11612850     0.07100
C968        C  0.64463693  0.47447425  0.11778639    -0.03000
Br969      Br  0.61955533  0.46479120  0.16268361    -0.01500
Br970      Br  0.57329579  0.42956391  0.09051850    -0.01600
Br971      Br  0.74917640  0.53888177  0.07913147    -0.01600
Br972      Br  0.70247252  0.51289479  0.00637988    -0.01600
C973        C  0.52840051  0.26172539  0.90257055    -0.02700
C974        C  0.53967217  0.24836960  0.92966549     0.07000
C975        C  0.55682936  0.26987207  0.95979884    -0.02800
C976        C  0.56134589  0.30423079  0.96356169    -0.02800
C977        C  0.55343407  0.31945878  0.93463772     0.07100
C978        C  0.53771590  0.29774894  0.90344063    -0.03000
Br979      Br  0.53072949  0.31594384  0.85979712    -0.01500
Br980      Br  0.50059397  0.23026653  0.86395107    -0.01600
Br981      Br  0.58021467  0.32987762  0.00801564    -0.01600
Br982      Br  0.57642936  0.25310062  0.99493012    -0.01600
C983        C  0.72216705  0.47154330  0.90397543    -0.02700
C984        C  0.69386407  0.45893291  0.92810985     0.07000
C985        C  0.69241655  0.43801601  0.95698054    -0.02800
C986        C  0.72025755  0.43147784  0.96294010    -0.02800
C987        C  0.74809938  0.44316104  0.93822788     0.07100
C988        C  0.74830647  0.46216373  0.90804314    -0.03000
Br989      Br  0.78275134  0.47337683  0.87087197    -0.01500
Br990      Br  0.72403886  0.50037141  0.86481967    -0.01600
Br991      Br  0.71863544  0.40381170  0.00300410    -0.01600
Br992      Br  0.65125378  0.41622291  0.98714978    -0.01600
C993        C  0.48621447  0.50361803  0.03246529    -0.02700
C994        C  0.47156608  0.51523508  0.00634635     0.07000
C995        C  0.48179142  0.51599549  0.97024364    -0.02800
C996        C  0.50795896  0.50741904  0.96077095    -0.02800
C997        C  0.52346884  0.49719335  0.98711732     0.07100
C998        C  0.51276034  0.49560172  0.02294489    -0.03000
Br999      Br  0.53628213  0.48459240  0.05935028    -0.01500
Br1000     Br  0.47001505  0.49804832  0.08125390    -0.01600
Br1001     Br  0.52191268  0.50872144  0.91150169    -0.01600
Br1002     Br  0.45755061  0.52537010  0.93306709    -0.01600
C1003       C  0.22531003  0.03709886  0.00859124    -0.02700
C1004       C  0.21228542  0.02636504  0.04340764     0.07000
C1005       C  0.19391451  0.98953903  0.05053671    -0.02800
C1006       C  0.17998854  0.96453592  0.02192992    -0.02800
C1007       C  0.18608542  0.97644506  0.98654821     0.07100
C1008       C  0.21237660  0.01210579  0.98008564    -0.03000
Br1009     Br  0.22649211  0.02808041  0.93194146    -0.01500
Br1010     Br  0.25649332  0.08695876  0.99954621    -0.01600
Br1011     Br  0.14896145  0.91466522  0.03095373    -0.01600
Br1012     Br  0.18210124  0.97355468  0.09889502    -0.01600
C1013       C  0.02588150  0.81305568  0.98234129    -0.02700
C1014       C  0.01704348  0.82064142  0.94883069     0.07000
C1015       C  0.98052920  0.80547507  0.94038456    -0.02800
C1016       C  0.95485533  0.79161072  0.96775155    -0.02800
C1017       C  0.96514978  0.79102981  0.00292593     0.07100
C1018       C  0.99982426  0.79785741  0.00923143    -0.03000
Br1019     Br  0.01295128  0.79119458  0.05606850    -0.01500
Br1020     Br  0.07426492  0.82628609  0.99260162    -0.01600
Br1021     Br  0.90575430  0.77562974  0.95798717    -0.01600
Br1022     Br  0.96491891  0.80588866  0.89264894    -0.01600
C1023       C  0.14732918  0.65892106  0.93094492    -0.02700
C1024       C  0.16508591  0.64059567  0.94039639     0.07000
C1025       C  0.19754997  0.64957678  0.92312643    -0.02800
C1026       C  0.21214610  0.67702718  0.89764015    -0.02800
C1027       C  0.19546689  0.69688661  0.89059655     0.07100
C1028       C  0.16353201  0.68818757  0.90824495    -0.03000
Br1029     Br  0.14197355  0.71698035  0.90115980    -0.01500
Br1030     Br  0.09924858  0.64244181  0.94685188    -0.01600
Br1031     Br  0.25433239  0.68677867  0.87147408    -0.01600
Br1032     Br  0.22247046  0.62502537  0.93451892    -0.01600
C1033       C  0.14309116  0.81155935  0.80205382    -0.02700
C1034       C  0.16870410  0.81040951  0.82368724     0.07000
C1035       C  0.18162137  0.83336262  0.85410019    -0.02800
C1036       C  0.17042057  0.85814743  0.86174061    -0.02800
C1037       C  0.14531238  0.85985631  0.83968503     0.07100
C1038       C  0.13072603  0.83529646  0.81052634    -0.03000
Br1039     Br  0.09374964  0.83364967  0.78129642    -0.01500
Br1040     Br  0.12638716  0.78239159  0.75910526    -0.01600
Br1041     Br  0.18772470  0.88765004  0.90448147    -0.01600
Br1042     Br  0.21334126  0.82978290  0.88705797    -0.01600
C1043       C  0.08554532  0.06943273  0.92860894    -0.02700
C1044       C  0.09861403  0.09170641  0.89868422     0.07000
C1045       C  0.12202055  0.08789884  0.87484003    -0.02800
C1046       C  0.13191498  0.06202470  0.88097280    -0.02800
C1047       C  0.11838566  0.03969444  0.91094237     0.07100
C1048       C  0.09747488  0.04586594  0.93588313    -0.03000
Br1049     Br  0.08710791  0.02440848  0.98210305    -0.01500
Br1050     Br  0.04880646  0.06852284  0.95920730    -0.01600
Br1051     Br  0.16498527  0.05865678  0.84871135    -0.01600
Br1052     Br  0.14059975  0.11756940  0.83352163    -0.01600
C1053       C  0.19308506  0.19210476  0.94874682    -0.02700
C1054       C  0.17793348  0.21324205  0.95812180     0.07000
C1055       C  0.18433418  0.22848709  0.99264116    -0.02800
C1056       C  0.19610890  0.21503104  0.01978160    -0.02800
C1057       C  0.20208317  0.18619463  0.01200092     0.07100
C1058       C  0.20424366  0.17780094  0.97566973    -0.03000
Br1059     Br  0.22151307  0.14606958  0.96221892    -0.01500
Br1060     Br  0.19855901  0.18238164  0.89945494    -0.01600
Br1061     Br  0.20024005  0.23484037  0.06739018    -0.01600
Br1062     Br  0.17554401  0.26714697  0.00248616    -0.01600
C1063       C  0.98570797  0.21239673  0.99720113    -0.02700
C1064       C  0.02119978  0.22093039  0.00190191     0.07000
C1065       C  0.03344102  0.22334553  0.03704757    -0.02800
C1066       C  0.00887294  0.20902498  0.06556967    -0.02800
C1067       C  0.97201077  0.19108009  0.05842059     0.07100
C1068       C  0.96099012  0.19667451  0.02522661    -0.03000
Br1069     Br  0.91130822  0.17907140  0.01724689    -0.01500
Br1070     Br  0.96990391  0.21812142  0.95145310    -0.01600
Br1071     Br  0.02569640  0.20844483  0.11264342    -0.01600
Br1072     Br  0.08342505  0.24232743  0.04502783    -0.01600
C1073       C  0.30279506  0.48827967  0.91119701    -0.02700
C1074       C  0.29667270  0.51184788  0.89182311     0.07000
C1075       C  0.31714843  0.54867334  0.89941255    -0.02800
C1076       C  0.34513476  0.56210617  0.92471070    -0.02800
C1077       C  0.35311726  0.53865051  0.94300014     0.07100
C1078       C  0.33072293  0.50107998  0.93607087    -0.03000
Br1079     Br  0.33730978  0.46481865  0.95809099    -0.01500
Br1080     Br  0.27303047  0.43747953  0.90185949    -0.01600
Br1081     Br  0.37325633  0.61302651  0.93149498    -0.01600
Br1082     Br  0.30898497  0.58093733  0.87213154    -0.01600
C1083       C  0.16263412  0.36459797  0.85797615    -0.02700
C1084       C  0.18190227  0.37096821  0.82556334     0.07000
C1085       C  0.17668332  0.34148669  0.80424502    -0.02800
C1086       C  0.15169423  0.30640708  0.81443172    -0.02800
C1087       C  0.13308537  0.29999078  0.84724965     0.07100
C1088       C  0.13883998  0.32939879  0.86893228    -0.03000
Br1089     Br  0.11591783  0.32161490  0.91491968    -0.01500
Br1090     Br  0.17037925  0.40393423  0.88911404    -0.01600
Br1091     Br  0.14150285  0.26727921  0.78180942    -0.01600
Br1092     Br  0.20319854  0.34877244  0.76045642    -0.01600
C1093       C  0.19093908  0.61130880  0.78902431    -0.02700
C1094       C  0.20252928  0.63268508  0.75856415     0.07000
C1095       C  0.22054296  0.62514053  0.73152404    -0.02800
C1096       C  0.23259504  0.60126335  0.73730234    -0.02800
C1097       C  0.22320970  0.58100528  0.76897431     0.07100
C1098       C  0.20165173  0.58602356  0.79471097    -0.03000
Br1099     Br  0.18660213  0.55927553  0.83816407    -0.01500
Br1100     Br  0.15866598  0.61496601  0.82225692    -0.01600
Br1101     Br  0.26471468  0.60007025  0.70161675    -0.01600
Br1102     Br  0.22663104  0.64631695  0.68526941    -0.01600
C1103       C  0.94227733  0.06802804  0.94467819    -0.02700
C1104       C  0.95942662  0.08979612  0.91533186     0.07000
C1105       C  0.94768704  0.07537350  0.88082850    -0.02800
C1106       C  0.92387473  0.03870878  0.87538940    -0.02800
C1107       C  0.90758634  0.01661616  0.90473517     0.07100
C1108       C  0.91555822  0.03208208  0.93954381    -0.03000
Br1109     Br  0.88812914  0.00558610  0.98037704    -0.01500
Br1110     Br  0.95249088  0.08846795  0.99180746    -0.01600
Br1111     Br  0.91532261  0.01883674  0.82751919    -0.01600
Br1112     Br  0.96098983  0.10578488  0.84092306    -0.01600
C1113       C  0.92123609  0.87796731  0.93119060    -0.02700
C1114       C  0.89905263  0.86661757  0.90103004     0.07000
C1115       C  0.91331190  0.86318688  0.86806198    -0.02800
C1116       C  0.95029343  0.87646988  0.86440988    -0.02800
C1117       C  0.97357411  0.89355340  0.89380004     0.07100
C1118       C  0.95818671  0.89437041  0.92731939    -0.03000
Br1119     Br  0.98620724  0.92056767  0.96867470    -0.01500
Br1120     Br  0.90072152  0.86793716  0.97867040    -0.01600
Br1121     Br  0.96773959  0.86999175  0.81884308    -0.01600
Br1122     Br  0.88226454  0.83710525  0.82866774    -0.01600
C1123       C  0.76783204  0.96347973  0.99027505    -0.02700
C1124       C  0.78419906  0.97520411  0.95698766     0.07000
C1125       C  0.80533222  0.01210093  0.95173540    -0.02800
C1126       C  0.81736814  0.03585726  0.98140661    -0.02800
C1127       C  0.80817839  0.02252860  0.01641483     0.07100
C1128       C  0.77947291  0.98692464  0.02016123    -0.03000
Br1129     Br  0.75648548  0.96863921  0.06540351    -0.01500
Br1130     Br  0.73123799  0.91425117  0.99447559    -0.01600
Br1131     Br  0.84653791  0.08631462  0.97361270    -0.01600
Br1132     Br  0.82050982  0.02943732  0.90425489    -0.01600
C1133       C  0.78578238  0.78390690  0.98648597    -0.02700
C1134       C  0.77932480  0.81257912  0.99123751     0.07000
C1135       C  0.77935422  0.82482561  0.02654395    -0.02800
C1136       C  0.79379687  0.81496595  0.05447461    -0.02800
C1137       C  0.81002189  0.79449207  0.04699303     0.07100
C1138       C  0.80267413  0.77614760  0.01375852    -0.03000
Br1139     Br  0.81748322  0.74171616  0.00489307    -0.01500
Br1140     Br  0.77256139  0.75551430  0.94295663    -0.01600
Br1141     Br  0.79306833  0.83155776  0.10213952    -0.01600
Br1142     Br  0.76081200  0.85607240  0.03684536    -0.01600
C1143       C  0.44327182  0.78517525  0.89116174    -0.02700
C1144       C  0.47921382  0.79467147  0.88926978     0.07000
C1145       C  0.50275770  0.81694746  0.91566600    -0.02800
C1146       C  0.49164066  0.83266123  0.94218548    -0.02800
C1147       C  0.45580108  0.82560572  0.94300299     0.07100
C1148       C  0.43144034  0.80050268  0.91773551    -0.03000
Br1149     Br  0.38223365  0.78793779  0.91713234    -0.01500
Br1150     Br  0.41056395  0.75140023  0.85652232    -0.01600
Br1151     Br  0.52755264  0.86402575  0.97624120    -0.01600
Br1152     Br  0.55095802  0.82601174  0.91461361    -0.01600
C1153       C  0.40501064  0.63146869  0.73441638    -0.02700
C1154       C  0.42041914  0.64719017  0.76818626     0.07000
C1155       C  0.41194977  0.62426831  0.79774442    -0.02800
C1156       C  0.38529309  0.58794358  0.79446972    -0.02800
C1157       C  0.36774069  0.57426950  0.76177148     0.07100
C1158       C  0.38113131  0.59488575  0.73151657    -0.03000
Br1159     Br  0.36995584  0.57113968  0.68585046    -0.01500
Br1160     Br  0.41303543  0.65790566  0.69096294    -0.01600
Br1161     Br  0.37515387  0.55634017  0.83354048    -0.01600
Br1162     Br  0.43696691  0.64092795  0.84256226    -0.01600
C1163       C  0.64005712  0.80327784  0.81454334    -0.02700
C1164       C  0.62434174  0.82441120  0.82232343     0.07000
C1165       C  0.64433172  0.85677843  0.84164877    -0.02800
C1166       C  0.67886950  0.86725503  0.85374784    -0.02800
C1167       C  0.69416308  0.84571737  0.84670562     0.07100
C1168       C  0.67418222  0.81334341  0.82750802    -0.03000
Br1169     Br  0.69365346  0.78273553  0.81816530    -0.01500
Br1170     Br  0.61646495  0.76179703  0.78332800    -0.01600
Br1171     Br  0.70408870  0.91020415  0.88239092    -0.01600
Br1172     Br  0.62444286  0.88676049  0.85268368    -0.01600
C1173       C  0.38282577  0.75845882  0.74578265    -0.02700
C1174       C  0.41306391  0.78640246  0.76343871     0.07000
C1175       C  0.40751042  0.80751592  0.78958255    -0.02800
C1176       C  0.37267638  0.80059601  0.79725059    -0.02800
C1177       C  0.34314533  0.77181197  0.78023079     0.07100
C1178       C  0.34860262  0.74939212  0.75679561    -0.03000
Br1179     Br  0.30877397  0.70435552  0.74124938    -0.01500
Br1180     Br  0.38620747  0.73403704  0.70331065    -0.01600
Br1181     Br  0.36553494  0.83032471  0.83137527    -0.01600
Br1182     Br  0.44654162  0.84633369  0.81524014    -0.01600
C1183       C  0.88778605  0.87674561  0.74378796    -0.02700
C1184       C  0.86462056  0.84649684  0.72219919     0.07000
C1185       C  0.82723563  0.83316290  0.72613869    -0.02800
C1186       C  0.81423014  0.84869209  0.75118061    -0.02800
C1187       C  0.83719002  0.87626791  0.77474631     0.07100
C1188       C  0.87415998  0.89120373  0.76985369    -0.03000
Br1189     Br  0.90637803  0.92989233  0.80092014    -0.01500
Br1190     Br  0.93848277  0.89797811  0.74021211    -0.01600
Br1191     Br  0.76398162  0.83270189  0.75263562    -0.01600
Br1192     Br  0.79138836  0.79285934  0.69855853    -0.01600
C1193       C  0.82089529  0.63768599  0.64326029    -0.02700
C1194       C  0.82693067  0.63000949  0.67798775     0.07000
C1195       C  0.84329761  0.65796747  0.70338544    -0.02800
C1196       C  0.85330335  0.69320481  0.69436718    -0.02800
C1197       C  0.84730937  0.70110219  0.65945633     0.07100
C1198       C  0.83124379  0.67291921  0.63391396    -0.03000
Br1199     Br  0.82440151  0.68209607  0.58538193    -0.01500
Br1200     Br  0.79856439  0.59970458  0.60798368    -0.01600
Br1201     Br  0.87302108  0.72979163  0.73138393    -0.01600
Br1202     Br  0.84950782  0.64746667  0.75160173    -0.01600
C1203       C  0.89080180  0.52849718  0.85351853    -0.02700
C1204       C  0.87637221  0.52660097  0.88777458     0.07000
C1205       C  0.85871193  0.54592010  0.89447999    -0.02800
C1206       C  0.84738417  0.55797440  0.86549717    -0.02800
C1207       C  0.85384166  0.55076715  0.83019962     0.07100
C1208       C  0.87892583  0.53966828  0.82450476    -0.03000
Br1209     Br  0.89295495  0.53420593  0.77686111    -0.01500
Br1210     Br  0.92336467  0.51130921  0.84611927    -0.01600
Br1211     Br  0.82025058  0.58125256  0.87359390    -0.01600
Br1212     Br  0.84482160  0.55069068  0.94231067    -0.01600
C1213       C  0.70128210  0.56806409  0.81908683    -0.02700
C1214       C  0.69253711  0.55084150  0.78536877     0.07000
C1215       C  0.65608272  0.52996619  0.77624037    -0.02800
C1216       C  0.63008107  0.51898632  0.80329646    -0.02800
C1217       C  0.64039476  0.52883461  0.83903495     0.07100
C1218       C  0.67546293  0.55648301  0.84631649    -0.03000
Br1219     Br  0.68993882  0.57466186  0.89428501    -0.01500
Br1220     Br  0.74930063  0.60569107  0.82825894    -0.01600
Br1221     Br  0.58054429  0.48762456  0.79241092    -0.01600
Br1222     Br  0.64111543  0.51289441  0.72807286    -0.01600
C1223       C  0.01050591  0.12845814  0.76550957    -0.02700
C1224       C  0.01918285  0.16117059  0.78285756     0.07000
C1225       C  0.00162485  0.17934558  0.77189328    -0.02800
C1226       C  0.97568368  0.16486112  0.74491175    -0.02800
C1227       C  0.96777155  0.13285344  0.72691608     0.07100
C1228       C  0.98541044  0.11476112  0.73729842    -0.03000
Br1229     Br  0.97603356  0.07178324  0.71200844    -0.01500
Br1230     Br  0.03012052  0.10050986  0.78247564    -0.01600
Br1231     Br  0.94978269  0.18854304  0.73326597    -0.01600
Br1232     Br  0.01301906  0.22485785  0.79348453    -0.01600
C1233       C  0.87166030  0.95327541  0.63615022    -0.02700
C1234       C  0.89737529  0.98054696  0.61476472     0.07000
C1235       C  0.91645721  0.97204483  0.58964007    -0.02800
C1236       C  0.90835189  0.93651878  0.58404247    -0.02800
C1237       C  0.88030507  0.90822325  0.60348111     0.07100
C1238       C  0.86177026  0.91731734  0.62925206    -0.03000
Br1239     Br  0.81996236  0.88113730  0.65314826    -0.01500
Br1240     Br  0.84985868  0.96478202  0.67542986    -0.01600
Br1241     Br  0.93723751  0.92892373  0.54931647    -0.01600
Br1242     Br  0.95600312  0.00991864  0.56422414    -0.01600
C1243       C  0.75253402  0.38910945  0.76938388    -0.02700
C1244       C  0.77708036  0.41709044  0.74727870     0.07000
C1245       C  0.79204141  0.40800090  0.71780866    -0.02800
C1246       C  0.78289273  0.37213172  0.71098936    -0.02800
C1247       C  0.75841652  0.34459046  0.73326695     0.07100
C1248       C  0.74181561  0.35333784  0.76109976    -0.03000
Br1249     Br  0.70160150  0.31600265  0.78647212    -0.01500
Br1250     Br  0.73451869  0.39857235  0.81318560    -0.01600
Br1251     Br  0.80393586  0.36134475  0.67043691    -0.01600
Br1252     Br  0.82499121  0.44388022  0.68569797    -0.01600
C1253       C  0.84255444  0.17001056  0.63567474    -0.02700
C1254       C  0.85048447  0.15032708  0.65942740     0.07000
C1255       C  0.83469551  0.14303776  0.69377415    -0.02800
C1256       C  0.81199999  0.15596562  0.70437537    -0.02800
C1257       C  0.80404973  0.17552421  0.68056242     0.07100
C1258       C  0.81962261  0.18265855  0.64621806    -0.03000
Br1259     Br  0.80864060  0.20879667  0.61283380    -0.01500
Br1260     Br  0.86096434  0.17747876  0.58760342    -0.01600
Br1261     Br  0.79370029  0.14901211  0.75251943    -0.01600
Br1262     Br  0.84464837  0.11607271  0.72711769    -0.01600
C1263       C  0.61984875  0.10216393  0.84771380    -0.02700
C1264       C  0.63094391  0.11863109  0.88171037     0.07000
C1265       C  0.66753538  0.13480054  0.88990064    -0.02800
C1266       C  0.69255347  0.14372539  0.86187337    -0.02800
C1267       C  0.68094745  0.13553497  0.82626025     0.07100
C1268       C  0.64486565  0.11045093  0.81999241    -0.03000
Br1269     Br  0.62914988  0.09080597  0.77273151    -0.01500
Br1270     Br  0.57012751  0.07028194  0.83869294    -0.01600
Br1271     Br  0.74277812  0.16996778  0.87123438    -0.01600
Br1272     Br  0.68412297  0.14880861  0.93815427    -0.01600
C1273       C  0.85509482  0.34169810  0.78912747    -0.02700
C1274       C  0.83880156  0.30496284  0.79638426     0.07000
C1275       C  0.84496029  0.29512799  0.82982160    -0.02800
C1276       C  0.85897768  0.32039266  0.85814701    -0.02800
C1277       C  0.86714294  0.35607722  0.85288089     0.07100
C1278       C  0.86903909  0.36719221  0.81726496    -0.03000
Br1279     Br  0.88962334  0.41707099  0.80636025    -0.01500
Br1280     Br  0.85714483  0.35778192  0.74126911    -0.01600
Br1281     Br  0.86371134  0.30392002  0.90403869    -0.01600
Br1282     Br  0.83270895  0.24636101  0.83674331    -0.01600
C1283       C  0.15709322  0.98785427  0.75844107    -0.02700
C1284       C  0.12584894  0.98111873  0.77652748     0.07000
C1285       C  0.11103623  0.00269259  0.76945011    -0.02800
C1286       C  0.12642131  0.02958759  0.74328809    -0.02800
C1287       C  0.15670905  0.03481682  0.72373401     0.07100
C1288       C  0.17307651  0.01522294  0.73350645    -0.03000
Br1289     Br  0.21964084  0.02798627  0.71510327    -0.01500
Br1290     Br  0.17857237  0.95945335  0.76832083    -0.01600
Br1291     Br  0.10710124  0.06024008  0.73633740    -0.01600
Br1292     Br  0.07049820  0.99611792  0.79681673    -0.01600
C1293       C  0.06836180  0.94407775  0.56920796    -0.02700
C1294       C  0.08414481  0.97095254  0.59536563     0.07000
C1295       C  0.06456593  0.97058444  0.62564001    -0.02800
C1296       C  0.03020933  0.94185107  0.63131539    -0.02800
C1297       C  0.01371373  0.91551071  0.60453613     0.07100
C1298       C  0.03256058  0.91751520  0.57273959    -0.03000
Br1299     Br  0.00954030  0.88528947  0.53302759    -0.01500
Br1300     Br  0.09583414  0.94465390  0.52830401    -0.01600
Br1301     Br  0.00516291  0.94034115  0.67444348    -0.01600
Br1302     Br  0.08336206  0.01123683  0.65735575    -0.01600
C1303       C  0.06139784  0.09282414  0.57673053    -0.02700
C1304       C  0.08350298  0.10531784  0.60705340     0.07000
C1305       C  0.07792542  0.12623960  0.63307862    -0.02800
C1306       C  0.05127591  0.13512245  0.62779530    -0.02800
C1307       C  0.03084076  0.12388032  0.59622687     0.07100
C1308       C  0.03842842  0.10536630  0.56969802    -0.03000
Br1309     Br  0.01849511  0.09863056  0.52261685    -0.01500
Br1310     Br  0.05766602  0.05398521  0.54735460    -0.01600
Br1311     Br  0.04357554  0.16311250  0.66357536    -0.01600
Br1312     Br  0.10510179  0.14173477  0.67665021    -0.01600
C1313       C  0.62322799  0.41932251  0.75924095    -0.02700
C1314       C  0.64492367  0.42701755  0.72806272     0.07000
C1315       C  0.62950597  0.40567638  0.69697462    -0.02800
C1316       C  0.59611144  0.37457067  0.69910254    -0.02800
C1317       C  0.57411979  0.36870502  0.72891380     0.07100
C1318       C  0.58729926  0.39240697  0.75820157    -0.03000
Br1319     Br  0.55602572  0.38745715  0.79737641    -0.01500
Br1320     Br  0.64104431  0.44275267  0.80494163    -0.01600
Br1321     Br  0.58449519  0.33697662  0.66468006    -0.01600
Br1322     Br  0.65237425  0.41722661  0.65079062    -0.01600
C1323       C  0.60624522  0.19549308  0.70780288    -0.02700
C1324       C  0.62140270  0.19893962  0.74158571     0.07000
C1325       C  0.60841595  0.20949486  0.77094004    -0.02800
C1326       C  0.58396528  0.22095849  0.76621241    -0.02800
C1327       C  0.57238504  0.22261187  0.73148657     0.07100
C1328       C  0.58316228  0.20880507  0.70230816    -0.03000
Br1329     Br  0.56876321  0.20986482  0.65413419    -0.01500
Br1330     Br  0.61562546  0.17113660  0.66944253    -0.01600
Br1331     Br  0.56611599  0.23260736  0.80859595    -0.01600
Br1332     Br  0.62303611  0.20620250  0.81825995    -0.01600
C1333       C  0.35703145  0.17902892  0.64018362    -0.02700
C1334       C  0.36493118  0.19270145  0.67569168     0.07000
C1335       C  0.33675239  0.18320598  0.70018272    -0.02800
C1336       C  0.30148613  0.15911493  0.68973438    -0.02800
C1337       C  0.29389423  0.14485166  0.65464768     0.07100
C1338       C  0.32170342  0.15506058  0.62987573    -0.03000
Br1339     Br  0.31110544  0.13759981  0.58118617    -0.01500
Br1340     Br  0.39400614  0.19508933  0.60433851    -0.01600
Br1341     Br  0.26342478  0.14438508  0.72410573    -0.01600
Br1342     Br  0.34584957  0.20231978  0.74839827    -0.01600
C1343       C  0.46342870  0.35196218  0.81328085    -0.02700
C1344       C  0.45446998  0.31607658  0.81899650     0.07000
C1345       C  0.44852946  0.30420226  0.85452219    -0.02800
C1346       C  0.46136323  0.32927534  0.88320596    -0.02800
C1347       C  0.47881533  0.36617912  0.87620729     0.07100
C1348       C  0.47445633  0.37646794  0.84224727    -0.03000
Br1349     Br  0.48722236  0.42540202  0.83526872    -0.01500
Br1350     Br  0.46499758  0.37011230  0.76628540    -0.01600
Br1351     Br  0.45819734  0.31269403  0.93103628    -0.01600
Br1352     Br  0.42426465  0.25385864  0.86385039     0.09200
C1353       C  0.43557213  0.14240139  0.81695669    -0.02700
C1354       C  0.45113237  0.14763387  0.78286671     0.07000
C1355       C  0.47287903  0.13294660  0.77494748    -0.02800
C1356       C  0.48591366  0.12159435  0.80281193    -0.02800
C1357       C  0.47570725  0.12315823  0.83830381     0.07100
C1358       C  0.44736668  0.12956851  0.84463710    -0.03000
Br1359     Br  0.42811650  0.12594313  0.89198935    -0.01500
Br1360     Br  0.40130463  0.15709603  0.82634619    -0.01600
Br1361     Br  0.51984942  0.10657532  0.79287146    -0.01600
Br1362     Br  0.48911881  0.13332775  0.72684731    -0.01600
C1363       C  0.79220509  0.43711719  0.57760298    -0.02700
C1364       C  0.82280235  0.46138544  0.55830721     0.07000
C1365       C  0.84188724  0.49744196  0.57029292    -0.02800
C1366       C  0.82850237  0.50978671  0.59784470    -0.02800
C1367       C  0.79660789  0.48624667  0.61536854     0.07100
C1368       C  0.77893243  0.44965186  0.60572470    -0.03000
Br1369     Br  0.73723107  0.41667376  0.63186535    -0.01500
Br1370     Br  0.76879237  0.38689386  0.56639816    -0.01600
Br1371     Br  0.85440293  0.55968956  0.61171537    -0.01600
Br1372     Br  0.88805768  0.53032540  0.55041341    -0.01600
C1373       C  0.84931063  0.56525452  0.32434879    -0.02700
C1374       C  0.84520434  0.55143027  0.28910976     0.07000
C1375       C  0.86388402  0.53379863  0.27950730    -0.02800
C1376       C  0.87595108  0.52025798  0.30624525    -0.02800
C1377       C  0.87282622  0.52767093  0.34245419     0.07100
C1378       C  0.86365786  0.55384388  0.35095164    -0.03000
Br1379     Br  0.86569454  0.57030267  0.39959068    -0.01500
Br1380     Br  0.83235429  0.59736315  0.33675392    -0.01600
Br1381     Br  0.89376938  0.48895368  0.29356981    -0.01600
Br1382     Br  0.87200752  0.52698268  0.23035622    -0.01600
C1383       C  0.89321039  0.38101107  0.33544066    -0.02700
C1384       C  0.87818284  0.36833573  0.36912702     0.07000
C1385       C  0.86281097  0.33143945  0.37519249    -0.02800
C1386       C  0.85320570  0.30750765  0.34576065    -0.02800
C1387       C  0.85801148  0.32055406  0.31078148     0.07100
C1388       C  0.88236358  0.35743018  0.30580003    -0.03000
Br1389     Br  0.89847190  0.37743124  0.25916431    -0.01500
Br1390     Br  0.92628355  0.43126217  0.33011691    -0.01600
Br1391     Br  0.83049891  0.25688892  0.35334283    -0.01600
Br1392     Br  0.85035910  0.31275221  0.42262967    -0.01600
C1393       C  0.01874476  0.51351762  0.47106398    -0.02700
C1394       C  0.02637155  0.50924791  0.50649404     0.07000
C1395       C  0.99878717  0.49525210  0.53194507    -0.02800
C1396       C  0.96397945  0.48585987  0.52205374    -0.02800
C1397       C  0.95654739  0.49055386  0.48670361     0.07100
C1398       C  0.98410103  0.50462996  0.46133129    -0.03000
Br1399     Br  0.97406216  0.51062818  0.41290115    -0.01500
Br1400     Br  0.05558239  0.52993569  0.43523579    -0.01600
Br1401     Br  0.92653584  0.46780565  0.55733432    -0.01600
Br1402     Br  0.00884859  0.49002768  0.58057396    -0.01600
C1403       C  0.13082713  0.48040449  0.71596817    -0.02700
C1404       C  0.14821613  0.46101963  0.70751479     0.07000
C1405       C  0.14333259  0.44564902  0.67295708    -0.02800
C1406       C  0.12953836  0.45665910  0.64538931    -0.02800
C1407       C  0.11916668  0.48217516  0.65263101     0.07100
C1408       C  0.11698100  0.49143861  0.68842956    -0.03000
Br1409     Br  0.09734801  0.52165073  0.69907460    -0.01500
Br1410     Br  0.12715458  0.49382904  0.76447672    -0.01600
Br1411     Br  0.13057844  0.44099418  0.59703648    -0.01600
Br1412     Br  0.15698151  0.41050657  0.66318444    -0.01600
C1413       C  0.10035314  0.63295973  0.64927953    -0.02700
C1414       C  0.11789265  0.64370746  0.61612143     0.07000
C1415       C  0.14055225  0.68066474  0.61063725    -0.02800
C1416       C  0.15131477  0.70481366  0.63993533    -0.02800
C1417       C  0.14015584  0.69228922  0.67467240     0.07100
C1418       C  0.11215758  0.65682022  0.67884978    -0.03000
Br1419     Br  0.09348585  0.63903676  0.72549235    -0.01500
Br1420     Br  0.06207501  0.58447930  0.65442065    -0.01600
Br1421     Br  0.18373269  0.75493052  0.63337258    -0.01600
Br1422     Br  0.16021031  0.69860895  0.56440013    -0.01600
C1423       C  0.55262975  0.33583397  0.56424654    -0.02700
C1424       C  0.54592102  0.36436704  0.56618711     0.07000
C1425       C  0.52662386  0.36658312  0.59521312    -0.02800
C1426       C  0.50863853  0.33795637  0.61852281    -0.02800
C1427       C  0.51309914  0.30751010  0.61571180     0.07100
C1428       C  0.53705277  0.30793872  0.58934064    -0.03000
Br1429     Br  0.54859942  0.27061343  0.58668763    -0.01500
Br1430     Br  0.58288500  0.33497098  0.52685613    -0.01600
Br1431     Br  0.47723085  0.34233924  0.65280537    -0.01600
Br1432     Br  0.52582293  0.41021971  0.60303822    -0.01600
C1433       C  0.68988954  0.44004398  0.40059970    -0.02700
C1434       C  0.67388458  0.43288167  0.43489234     0.07000
C1435       C  0.69483089  0.43736935  0.46498948    -0.02800
C1436       C  0.73077406  0.44763480  0.46073781    -0.02800
C1437       C  0.74647569  0.45404856  0.42662246     0.07100
C1438       C  0.72616370  0.45122842  0.39669675    -0.03000
Br1439     Br  0.74881522  0.46408799  0.35044901    -0.01500
Br1440     Br  0.66316225  0.43551056  0.35845352    -0.01600
Br1441     Br  0.75759630  0.45078506  0.50191813    -0.01600
Br1442     Br  0.67408946  0.42734603  0.51225380    -0.01600
C1443       C  0.66887412  0.52942876  0.39819002    -0.02700
C1444       C  0.63250636  0.51479635  0.39024120     0.07000
C1445       C  0.62325605  0.52202398  0.35695232    -0.02800
C1446       C  0.64891178  0.53692710  0.32959148    -0.02800
C1447       C  0.68395147  0.54439761  0.33554587     0.07100
C1448       C  0.69445719  0.54375561  0.37074710    -0.03000
Br1449     Br  0.74350267  0.55962073  0.38054712    -0.01500
Br1450     Br  0.68337466  0.52552532  0.44536938    -0.01600
Br1451     Br  0.63419760  0.54109862  0.28258228    -0.01600
Br1452     Br  0.57458531  0.50795523  0.34784146    -0.01600
C1453       C  0.47003707  0.36217933  0.32370390    -0.02700
C1454       C  0.46455665  0.34827472  0.35848435     0.07000
C1455       C  0.43951655  0.31134575  0.36269815    -0.02800
C1456       C  0.42580845  0.28894455  0.33240024    -0.02800
C1457       C  0.44116913  0.30153107  0.29882189     0.07100
C1458       C  0.45951792  0.33873722  0.29373339    -0.03000
Br1459     Br  0.47470773  0.35795735  0.24677453    -0.01500
Br1460     Br  0.49482284  0.41302469  0.31675568    -0.01600
Br1461     Br  0.38998356  0.23934398  0.33697446    -0.01600
Br1462     Br  0.42764272  0.28840658  0.40848472    -0.01600
C1463       C  0.46936517  0.48820304  0.53809750    -0.02700
C1464       C  0.47981380  0.51815721  0.51682499     0.07000
C1465       C  0.49965648  0.52240572  0.48560647    -0.02800
C1466       C  0.51050363  0.49772693  0.47670723    -0.02800
C1467       C  0.50124217  0.46846384  0.49867620     0.07100
C1468       C  0.47961693  0.46310839  0.52877411    -0.03000
Br1469     Br  0.46264860  0.42068280  0.55617286    -0.01500
Br1470     Br  0.44054059  0.48133719  0.57964962    -0.01600
Br1471     Br  0.53635021  0.50284223  0.43331608    -0.01600
Br1472     Br  0.51088011  0.56143014  0.45448557    -0.01600
C1473       C  0.28660229  0.54435232  0.58930691    -0.02700
C1474       C  0.30821598  0.56129875  0.55925765     0.07000
C1475       C  0.29375184  0.57084249  0.53118591    -0.02800
C1476       C  0.25876657  0.56443584  0.53382290    -0.02800
C1477       C  0.23772169  0.54791384  0.56393926     0.07100
C1478       C  0.25166581  0.53783636  0.59165781    -0.03000
Br1479     Br  0.22315389  0.51633528  0.63349203    -0.01500
Br1480     Br  0.30372819  0.52889696  0.62747624    -0.01600
Br1481     Br  0.24006103  0.58023458  0.49722220    -0.01600
Br1482     Br  0.32219546  0.59486812  0.49023780    -0.01600
C1483       C  0.51832681  0.66008100  0.71906743    -0.02700
C1484       C  0.53941375  0.69673264  0.71134846     0.07000
C1485       C  0.55607339  0.70620706  0.67780554    -0.02800
C1486       C  0.54472625  0.68065828  0.64980941    -0.02800
C1487       C  0.51575243  0.64571231  0.65543302     0.07100
C1488       C  0.50610492  0.63467095  0.69094927    -0.03000
Br1489     Br  0.47524012  0.58502089  0.70121505    -0.01500
Br1490     Br  0.50315945  0.64412472  0.76712636    -0.01600
Br1491     Br  0.56758988  0.69539374  0.60390795    -0.01600
Br1492     Br  0.59252777  0.75497225  0.66990123    -0.01600
C1493       C  0.31706457  0.45993234  0.61260667    -0.02700
C1494       C  0.35385979  0.47983286  0.61973622     0.07000
C1495       C  0.36547216  0.47733387  0.65403191    -0.02800
C1496       C  0.34090054  0.46187628  0.68221002    -0.02800
C1497       C  0.30476686  0.45028732  0.67662173     0.07100
C1498       C  0.29262709  0.44635927  0.64122922    -0.03000
Br1499     Br  0.24289418  0.42777811  0.63281454    -0.01500
Br1500     Br  0.29976111  0.45688505  0.56490415    -0.01600
Br1501     Br  0.35766250  0.46227129  0.72963875    -0.01600
Br1502     Br  0.41542124  0.49903554  0.66368757    -0.01600
C1503       C  0.43416800  0.70115376  0.53006708    -0.02700
C1504       C  0.45268559  0.69889241  0.55931306     0.07000
C1505       C  0.46246735  0.72351271  0.58768817    -0.02800
C1506       C  0.45210028  0.74920426  0.58788675    -0.02800
C1507       C  0.43522953  0.75306282  0.55748645     0.07100
C1508       C  0.42632390  0.72867525  0.52855358    -0.03000
Br1509     Br  0.39885556  0.72910163  0.48891130    -0.01500
Br1510     Br  0.41529005  0.66395239  0.49424428    -0.01600
Br1511     Br  0.45860223  0.77578457  0.63189548    -0.01600
Br1512     Br  0.48913412  0.72081837  0.62703417    -0.01600
C1513       C  0.27000353  0.74597579  0.53550961    -0.02700
C1514       C  0.29268795  0.75339256  0.56523924     0.07000
C1515       C  0.28733670  0.72484909  0.58687426    -0.02800
C1516       C  0.26393206  0.68977902  0.57620649    -0.02800
C1517       C  0.23980574  0.68231138  0.54834874     0.07100
C1518       C  0.24341747  0.71041607  0.52727636    -0.03000
Br1519     Br  0.21260304  0.70039361  0.48687164    -0.01500
Br1520     Br  0.27365190  0.78369707  0.50645257    -0.01600
Br1521     Br  0.26690235  0.65181356  0.59869606    -0.01600
Br1522     Br  0.30923084  0.73276110  0.63341748    -0.01600
C1523       C  0.51537440  0.89352795  0.65447128    -0.02700
C1524       C  0.51095522  0.87742595  0.62042622     0.07000
C1525       C  0.52949568  0.85914816  0.61249582    -0.02800
C1526       C  0.54330159  0.84884299  0.64062351    -0.02800
C1527       C  0.53982762  0.85795429  0.67616257     0.07100
C1528       C  0.52945081  0.88353691  0.68251811    -0.03000
Br1529     Br  0.52878100  0.90045212  0.73030912    -0.01500
Br1530     Br  0.49905630  0.92680832  0.66300372    -0.01600
Br1531     Br  0.56280157  0.81835365  0.63123816    -0.01600
Br1532     Br  0.53231570  0.84397432  0.56436013    -0.01600
C1533       C  0.36092796  0.87912099  0.69282130    -0.02700
C1534       C  0.34944394  0.87662231  0.65732439     0.07000
C1535       C  0.31439639  0.86941373  0.65155474    -0.02800
C1536       C  0.28960164  0.85710509  0.67992721    -0.02800
C1537       C  0.29997669  0.85312622  0.71411082     0.07100
C1538       C  0.33661496  0.87028082  0.72124439    -0.03000
Br1539     Br  0.35354134  0.88288772  0.76932276    -0.01500
Br1540     Br  0.40889994  0.89093124  0.70255323    -0.01600
Br1541     Br  0.24096753  0.84431792  0.67243113    -0.01600
Br1542     Br  0.29873927  0.87172676  0.60447352    -0.01600
C1543       C  0.66172087  0.15557243  0.56326939    -0.02700
C1544       C  0.64153360  0.17195162  0.55522814     0.07000
C1545       C  0.64733465  0.20221336  0.57564159    -0.02800
C1546       C  0.67406538  0.21686614  0.60215845    -0.02800
C1547       C  0.69260474  0.19935104  0.61111134     0.07100
C1548       C  0.68637083  0.16879282  0.59137339    -0.03000
Br1549     Br  0.71189332  0.14472112  0.60316052    -0.01500
Br1550     Br  0.65502523  0.11349114  0.53729631    -0.01600
Br1551     Br  0.68474180  0.26048913  0.62696664    -0.01600
Br1552     Br  0.61806547  0.22303416  0.56873893    -0.01600
C1553       C  0.72020957  0.25624777  0.40161470    -0.02700
C1554       C  0.69256955  0.24468140  0.42645926     0.07000
C1555       C  0.69260415  0.26881533  0.45228182    -0.02800
C1556       C  0.72077927  0.30420732  0.45395228    -0.02800
C1557       C  0.74885742  0.31583013  0.42930975     0.07100
C1558       C  0.74715923  0.29217651  0.40162547    -0.03000
Br1559     Br  0.77819476  0.30874000  0.36082404    -0.01500
Br1560     Br  0.72009665  0.22310364  0.36655333    -0.01600
Br1561     Br  0.71778648  0.33805088  0.48597191    -0.01600
Br1562     Br  0.65332512  0.25375028  0.48470034    -0.01600
C1563       C  0.52078624  0.26843544  0.46633968    -0.02700
C1564       C  0.53879399  0.29556459  0.44079964     0.07000
C1565       C  0.56640942  0.29542963  0.42021186    -0.02800
C1566       C  0.57601615  0.26955677  0.42574850    -0.02800
C1567       C  0.55791203  0.24262205  0.45093405     0.07100
C1568       C  0.53142980  0.24321325  0.47239889    -0.03000
Br1569     Br  0.50976579  0.20978014  0.51049202    -0.01500
Br1570     Br  0.47900972  0.26273653  0.49093650    -0.01600
Br1571     Br  0.61602335  0.27241867  0.39970941    -0.01600
Br1572     Br  0.59205500  0.32959484  0.38325641    -0.01600
C1573       C  0.48618749  0.99075129  0.53476156    -0.02700
C1574       C  0.47508890  0.96248175  0.50960756     0.07000
C1575       C  0.49172971  0.96966696  0.47556575    -0.02800
C1576       C  0.51607917  0.00497830  0.46570002    -0.02800
C1577       C  0.52620478  0.03321432  0.49051068     0.07100
C1578       C  0.51209311  0.02577380  0.52544624    -0.03000
Br1579     Br  0.52989130  0.06352617  0.56121069    -0.01500
Br1580     Br  0.46822388  0.98121265  0.58295871    -0.01600
Br1581     Br  0.53392056  0.01491224  0.41742332    -0.01600
Br1582     Br  0.48217102  0.93151428  0.44198558    -0.01600
C1583       C  0.67135351  0.12705557  0.34171526    -0.02700
C1584       C  0.63629187  0.11995013  0.33667110     0.07000
C1585       C  0.62514583  0.12008089  0.30162844    -0.02800
C1586       C  0.65022589  0.13403524  0.27361854    -0.02800
C1587       C  0.68693711  0.15025074  0.28119675     0.07100
C1588       C  0.69684762  0.14310160  0.31427596    -0.03000
Br1589     Br  0.74591856  0.15783437  0.32262077    -0.01500
Br1590     Br  0.68558772  0.11846723  0.38706076    -0.01600
Br1591     Br  0.63406630  0.13460771  0.22621936    -0.01600
Br1592     Br  0.57595279  0.10455924  0.29295856    -0.01600
C1593       C  0.44889290  0.15327708  0.37018731    -0.02700
C1594       C  0.45175058  0.14622567  0.33384929     0.07000
C1595       C  0.46073398  0.12006542  0.32440244    -0.02800
C1596       C  0.47181304  0.10540603  0.35087470    -0.02800
C1597       C  0.47655528  0.11870948  0.38626688     0.07100
C1598       C  0.46033679  0.13870762  0.39648473    -0.03000
Br1599     Br  0.45501613  0.14781370  0.44586946    -0.01500
Br1600     Br  0.43243382  0.18564301  0.38352698    -0.01600
Br1601     Br  0.48392342  0.06949990  0.33835704    -0.01600
Br1602     Br  0.46461264  0.10892961  0.27503998    -0.01600
C1603       C  0.15548654  0.16215535  0.21538521    -0.02700
C1604       C  0.15123126  0.12724357  0.21651714     0.07000
C1605       C  0.12866089  0.10379479  0.24310964    -0.02800
C1606       C  0.11269722  0.11554987  0.26887534    -0.02800
C1607       C  0.11961748  0.15082555  0.26902879     0.07100
C1608       C  0.13923576  0.17329675  0.24125744    -0.03000
Br1609     Br  0.14371428  0.21980198  0.23934762    -0.01500
Br1610     Br  0.18419614  0.19690235  0.17989828    -0.01600
Br1611     Br  0.08166034  0.08381336  0.30503244    -0.01600
Br1612     Br  0.12110512  0.05639251  0.24662272    -0.01600
C1613       C  0.95699966  0.16951879  0.47349029    -0.02700
C1614       C  0.96917088  0.18100751  0.50859992     0.07000
C1615       C  0.00466007  0.20876829  0.51359780    -0.02800
C1616       C  0.02902486  0.21912761  0.48495930    -0.02800
C1617       C  0.01820526  0.20164492  0.45144720     0.07100
C1618       C  0.98131305  0.18047157  0.44477389    -0.03000
Br1619     Br  0.96363189  0.16443181  0.39721163    -0.01500
Br1620     Br  0.90723538  0.13646672  0.46541731    -0.01600
Br1621     Br  0.07779500  0.25610328  0.49164926    -0.01600
Br1622     Br  0.02141186  0.22936231  0.56034631    -0.01600
C1623       C  0.18149126  0.19800304  0.54789602    -0.02700
C1624       C  0.20377193  0.18358162  0.54061560     0.07000
C1625       C  0.22097577  0.19028356  0.50698972    -0.02800
C1626       C  0.21144655  0.20552140  0.47953364    -0.02800
C1627       C  0.18357394  0.21267194  0.48499539     0.07100
C1628       C  0.17116329  0.21197960  0.52001738    -0.03000
Br1629     Br  0.13601978  0.22581985  0.52855754    -0.01500
Br1630     Br  0.16047066  0.19457287  0.59428972    -0.01600
Br1631     Br  0.23319685  0.21184496  0.43310451    -0.01600
Br1632     Br  0.25518283  0.17544069  0.49714664    -0.01600
C1633       C  0.14363946  0.49442645  0.42569511    -0.02700
C1634       C  0.16117019  0.53122983  0.43457486     0.07000
C1635       C  0.19231849  0.55465284  0.41545556    -0.02800
C1636       C  0.20681040  0.54070149  0.39000639    -0.02800
C1637       C  0.19041172  0.50346140  0.38373620     0.07100
C1638       C  0.15937076  0.48063093  0.40252510    -0.03000
Br1639     Br  0.13834935  0.42979158  0.39633485    -0.01500
Br1640     Br  0.09592143  0.46280878  0.44255841    -0.01600
Br1641     Br  0.24835276  0.57245644  0.36277262    -0.01600
Br1642     Br  0.21388566  0.60556267  0.42204301    -0.01600
C1643       C  0.17595199  0.31226252  0.31845485    -0.02700
C1644       C  0.14385926  0.29276484  0.33752552     0.07000
C1645       C  0.12156527  0.30753971  0.34248270    -0.02800
C1646       C  0.13072286  0.34071724  0.32780243    -0.02800
C1647       C  0.16365308  0.36105585  0.31012199     0.07100
C1648       C  0.18564787  0.34590571  0.30476845    -0.03000
Br1649     Br  0.22832962  0.36950028  0.27614327    -0.01500
Br1650     Br  0.20674996  0.29283399  0.30953811    -0.01600
Br1651     Br  0.09716288  0.35722833  0.33215448    -0.01600
Br1652     Br  0.07933723  0.28393590  0.37190829    -0.01600
C1653       C  0.34666166  0.52519533  0.16829619    -0.02700
C1654       C  0.35956271  0.50400671  0.15384459     0.07000
C1655       C  0.34359479  0.46817531  0.16440154    -0.02800
C1656       C  0.31450537  0.45438194  0.18867004    -0.02800
C1657       C  0.29820629  0.47469029  0.19706325     0.07100
C1658       C  0.31269675  0.50881452  0.18228530    -0.03000
Br1659     Br  0.28387774  0.52849212  0.16768270    -0.01500
Br1660     Br  0.37369324  0.57637390  0.16785968    -0.01600
Br1661     Br  0.29403330  0.40664743  0.20545322    -0.01600
Br1662     Br  0.36284142  0.43947564  0.14704161    -0.01600
C1663       C  0.14336868  0.44761918  0.13259183    -0.02700
C1664       C  0.13173686  0.44874427  0.16753731     0.07000
C1665       C  0.10546537  0.45817361  0.17261943    -0.02800
C1666       C  0.09818730  0.47500742  0.14505607    -0.02800
C1667       C  0.11658555  0.48160973  0.11232646     0.07100
C1668       C  0.13479388  0.46303429  0.10463801    -0.03000
Br1669     Br  0.14979541  0.46017436  0.05694055    -0.01500
Br1670     Br  0.17421391  0.42841333  0.12427910    -0.01600
Br1671     Br  0.06467255  0.49095571  0.15248375    -0.01600
Br1672     Br  0.08344737  0.45286205  0.21866248    -0.01600
C1673       C  0.96671449  0.85734542  0.24819296    -0.02700
C1674       C  0.96692176  0.83247131  0.22306333     0.07000
C1675       C  0.99227566  0.82126825  0.22829554    -0.02800
C1676       C  0.01658508  0.83509851  0.25696469    -0.02800
C1677       C  0.01772551  0.86151811  0.28023267     0.07100
C1678       C  0.99248054  0.87229839  0.27579710    -0.03000
Br1679     Br  0.99267387  0.90707391  0.30859640    -0.01500
Br1680     Br  0.93153651  0.87163545  0.24557192    -0.01600
Br1681     Br  0.04826880  0.81698999  0.26527935    -0.01600
Br1682     Br  0.99433722  0.78574887  0.19770508    -0.01600
C1683       C  0.12603270  0.04040485  0.37031651    -0.02700
C1684       C  0.10853755  0.01781295  0.39961381     0.07000
C1685       C  0.10546034  0.03384167  0.43212829    -0.02800
C1686       C  0.11709566  0.07035851  0.43385519    -0.02800
C1687       C  0.12866800  0.09083407  0.40314868     0.07100
C1688       C  0.13717361  0.07711208  0.37273026    -0.03000
Br1689     Br  0.16785525  0.10924338  0.33677899    -0.01500
Br1690     Br  0.13537161  0.02223316  0.32660246    -0.01600
Br1691     Br  0.12044459  0.09427139  0.47896776    -0.01600
Br1692     Br  0.08280349  0.00723852  0.47465334    -0.01600
C1693       C  0.18824905  0.96264624  0.48704752    -0.02700
C1694       C  0.18058241  0.97062970  0.45327134     0.07000
C1695       C  0.19726234  0.00694332  0.44388236    -0.02800
C1696       C  0.21097216  0.03358121  0.47091950    -0.02800
C1697       C  0.21015963  0.02416858  0.50669696     0.07100
C1698       C  0.20368712  0.98961077  0.51369017    -0.03000
Br1699     Br  0.21309150  0.97831737  0.56010775    -0.01500
Br1700     Br  0.17618950  0.91453376  0.49687343    -0.01600
Br1701     Br  0.22972269  0.08284467  0.45955398    -0.01600
Br1702     Br  0.20020404  0.02069577  0.39492316    -0.01600
C1703       C  0.98701738  0.78011237  0.49633623    -0.02700
C1704       C  0.02212998  0.80933821  0.49886010     0.07000
C1705       C  0.03718607  0.82084875  0.53314384    -0.02800
C1706       C  0.01531581  0.80935873  0.56379586    -0.02800
C1707       C  0.97845426  0.78626178  0.56008976     0.07100
C1708       C  0.96574424  0.76786181  0.52729491    -0.03000
Br1709     Br  0.91693116  0.72998967  0.52451054    -0.01500
Br1710     Br  0.96580054  0.76036153  0.45058338    -0.01600
Br1711     Br  0.03465735  0.82945255  0.60999873    -0.01600
Br1712     Br  0.08714728  0.85450036  0.53769970    -0.01600
C1713       C  0.30727207  0.77380566  0.40860473    -0.02700
C1714       C  0.30508166  0.79923083  0.38760150     0.07000
C1715       C  0.32935675  0.83613627  0.39459670    -0.02800
C1716       C  0.35647670  0.84689397  0.41981621    -0.02800
C1717       C  0.35825161  0.82175240  0.44105649     0.07100
C1718       C  0.33315467  0.78520198  0.43583796    -0.03000
Br1719     Br  0.33254184  0.75098579  0.46782665    -0.01500
Br1720     Br  0.27520382  0.72346698  0.40073432    -0.01600
Br1721     Br  0.39077429  0.89696739  0.42666575    -0.01600
Br1722     Br  0.32476742  0.87347969  0.37231924    -0.01600
C1723       C  0.21089274  0.59743467  0.23166548    -0.02700
C1724       C  0.19268341  0.57171342  0.25766595     0.07000
C1725       C  0.18252223  0.58176737  0.28982005    -0.02800
C1726       C  0.19294048  0.61794072  0.29663417    -0.02800
C1727       C  0.21494532  0.64427742  0.27192380     0.07100
C1728       C  0.22539916  0.63348003  0.24031345    -0.03000
Br1729     Br  0.26394203  0.66716346  0.21081486    -0.01500
Br1730     Br  0.21527598  0.58308995  0.18344165    -0.01600
Br1731     Br  0.17752632  0.63071521  0.34008815    -0.01600
Br1732     Br  0.15397512  0.54629543  0.32424212    -0.01600
C1733       C  0.17196478  0.81470665  0.36074596    -0.02700
C1734       C  0.18983598  0.82470012  0.32750278     0.07000
C1735       C  0.18264224  0.84553344  0.30465488    -0.02800
C1736       C  0.15637377  0.85425811  0.31381005    -0.02800
C1737       C  0.13683661  0.84234335  0.34615834     0.07100
C1738       C  0.14547843  0.82315209  0.36988453    -0.03000
Br1739     Br  0.12304070  0.81048938  0.41620238    -0.01500
Br1740     Br  0.18578467  0.79172669  0.39528505    -0.01600
Br1741     Br  0.14697456  0.88201296  0.28080212    -0.01600
Br1742     Br  0.20807746  0.86163909  0.26014339    -0.01600
C1743       C  0.13247144  0.69947221  0.18438731    -0.02700
C1744       C  0.14036240  0.69060280  0.21741256     0.07000
C1745       C  0.12715653  0.65420784  0.22425992    -0.02800
C1746       C  0.11772935  0.62968089  0.19554545    -0.02800
C1747       C  0.11745606  0.64072850  0.16060460     0.07100
C1748       C  0.12078119  0.67451745  0.15583022    -0.03000
Br1749     Br  0.11463565  0.68910441  0.10964274    -0.01500
Br1750     Br  0.14023514  0.74675510  0.17835461    -0.01600
Br1751     Br  0.10831958  0.58202687  0.20372694    -0.01600
Br1752     Br  0.12340734  0.63796775  0.27223167    -0.01600
C1753       C  0.35846630  0.89243095  0.14802381    -0.02700
C1754       C  0.34751848  0.87561192  0.11432340     0.07000
C1755       C  0.31110712  0.85127213  0.10863858    -0.02800
C1756       C  0.28753634  0.83864187  0.13787036    -0.02800
C1757       C  0.30031119  0.85028088  0.17280313     0.07100
C1758       C  0.33499294  0.87983052  0.17737550    -0.03000
Br1759     Br  0.35237813  0.89996995  0.22416145    -0.01500
Br1760     Br  0.40738131  0.92914087  0.15443927    -0.01600
Br1761     Br  0.23827861  0.80319338  0.13065118    -0.01600
Br1762     Br  0.29469648  0.83063800  0.06184878    -0.01600
C1763       C  0.87282780  0.98792451  0.26788597    -0.02700
C1764       C  0.83624565  0.96260860  0.27004012     0.07000
C1765       C  0.81329101  0.96541138  0.24632321    -0.02800
C1766       C  0.82555136  0.99510822  0.22370710    -0.02800
C1767       C  0.86247754  0.02218615  0.22237659     0.07100
C1768       C  0.88594829  0.01717166  0.24428576    -0.03000
Br1769     Br  0.93596708  0.05134395  0.24507581    -0.01500
Br1770     Br  0.90478997  0.98292679  0.29898599    -0.01600
Br1771     Br  0.78941015  0.99729240  0.19627957    -0.01600
Br1772     Br  0.76442807  0.92725110  0.24495764    -0.01600
C1773       C  0.93153973  0.03885429  0.42536294    -0.02700
C1774       C  0.90532584  0.03256601  0.40017706     0.07000
C1775       C  0.91498232  0.05352153  0.36939072    -0.02800
C1776       C  0.95104711  0.07893700  0.36319223    -0.02800
C1777       C  0.97752587  0.08133100  0.38647502     0.07100
C1778       C  0.96721458  0.05900885  0.41620612    -0.03000
Br1779     Br  0.00094193  0.05146857  0.44184314    -0.01500
Br1780     Br  0.91860905  0.02013393  0.47294744    -0.01600
Br1781     Br  0.96328120  0.10980026  0.32287054    -0.01600
Br1782     Br  0.87932080  0.04818867  0.33608640    -0.01600
C1783       C  0.94305912  0.92147577  0.38443013    -0.02700
C1784       C  0.90946472  0.89197968  0.37792457     0.07000
C1785       C  0.90389719  0.85738721  0.38135646    -0.02800
C1786       C  0.93144496  0.85221877  0.39346152    -0.02800
C1787       C  0.96536109  0.88197335  0.40173208     0.07100
C1788       C  0.97078788  0.91683114  0.39639063    -0.03000
Br1789     Br  0.01570696  0.95975093  0.40374703    -0.01500
Br1790     Br  0.95049568  0.96867471  0.37673737    -0.01600
Br1791     Br  0.92071854  0.80403409  0.40117432    -0.01600
Br1792     Br  0.85772073  0.81700986  0.37065522    -0.01600
C1793       C  0.78306868  0.95656383  0.52449791    -0.02700
C1794       C  0.78438167  0.96946462  0.49005273     0.07000
C1795       C  0.79163455  0.00480921  0.48683139    -0.02800
C1796       C  0.80450065  0.02852829  0.51648071    -0.02800
C1797       C  0.81141522  0.01748227  0.54893912     0.07100
C1798       C  0.79623581  0.98045013  0.55407432    -0.03000
Br1799     Br  0.79539224  0.96228463  0.60053000    -0.01500
Br1800     Br  0.76564770  0.90643313  0.53021553    -0.01600
Br1801     Br  0.81511263  0.07703800  0.51247408    -0.01600
Br1802     Br  0.78911964  0.02243618  0.44101548    -0.01600
C1803       C  0.78402539  0.79340046  0.47154819    -0.02700
C1804       C  0.81022489  0.82548073  0.45592198     0.07000
C1805       C  0.84528880  0.84072324  0.46891879    -0.02800
C1806       C  0.85541949  0.82073065  0.48867605    -0.02800
C1807       C  0.82953768  0.79274225  0.50922565     0.07100
C1808       C  0.79341230  0.77851956  0.49998290    -0.03000
Br1809     Br  0.75736474  0.73890297  0.52609224    -0.01500
Br1810     Br  0.73520026  0.77324111  0.45823246    -0.01600
Br1811     Br  0.90577642  0.83744885  0.49116933    -0.01600
Br1812     Br  0.87395366  0.89108371  0.47858517    -0.01600
C1813       C  0.44659881  0.66026228  0.39028003    -0.02700
C1814       C  0.48122103  0.69026518  0.38968273     0.07000
C1815       C  0.50460244  0.69451924  0.41718252    -0.02800
C1816       C  0.49422454  0.66861761  0.44408029    -0.02800
C1817       C  0.45980288  0.63689369  0.44364061     0.07100
C1818       C  0.43643431  0.63311896  0.41577660    -0.03000
Br1819     Br  0.39187551  0.58928818  0.40941659    -0.01500
Br1820     Br  0.41261345  0.65729315  0.35626865    -0.01600
Br1821     Br  0.52902407  0.67811301  0.48054457    -0.01600
Br1822     Br  0.55154010  0.73624840  0.41721805    -0.01600
C1823       C  0.64224479  0.83707789  0.31090235    -0.02700
C1824       C  0.62413699  0.80006937  0.31820121     0.07000
C1825       C  0.64221916  0.78680224  0.33803100    -0.02800
C1826       C  0.67742563  0.80993311  0.35001761    -0.02800
C1827       C  0.69501210  0.84711684  0.34357549     0.07100
C1828       C  0.67656667  0.86044952  0.32454865    -0.03000
Br1829     Br  0.69797342  0.91091918  0.31586529    -0.01500
Br1830     Br  0.62162391  0.85645872  0.27972497    -0.01600
Br1831     Br  0.70040766  0.79007719  0.37716826    -0.01600
Br1832     Br  0.61876594  0.73714400  0.35071475    -0.01600
C1833       C  0.35143913  0.74690719  0.28098124    -0.02700
C1834       C  0.35656621  0.77870659  0.26564837     0.07000
C1835       C  0.39177809  0.80673162  0.26026582    -0.02800
C1836       C  0.42075474  0.80178752  0.26753399    -0.02800
C1837       C  0.41500143  0.76835662  0.27837735     0.07100
C1838       C  0.38016120  0.74114692  0.28554516    -0.03000
Br1839     Br  0.37161708  0.69550942  0.30095226    -0.01500
Br1840     Br  0.30597221  0.71254393  0.30004334    -0.01600
Br1841     Br  0.46846828  0.84142139  0.26417011    -0.01600
Br1842     Br  0.40083383  0.85172052  0.24222274    -0.01600
C1843       C  0.39986015  0.59808728  0.28373246    -0.02700
C1844       C  0.40762491  0.62593923  0.25983823     0.07000
C1845       C  0.37880472  0.62618930  0.24249592    -0.02800
C1846       C  0.34379121  0.60188139  0.25188102    -0.02800
C1847       C  0.33612926  0.57309486  0.27366856     0.07100
C1848       C  0.36422671  0.57092609  0.28930464    -0.03000
Br1849     Br  0.35424496  0.53010103  0.31707395    -0.01500
Br1850     Br  0.43694969  0.59678594  0.31003113    -0.01600
Br1851     Br  0.30593038  0.60889454  0.23531618    -0.01600
Br1852     Br  0.38510495  0.65760366  0.20332896    -0.01600
C1853       C  0.47226978  0.83211943  0.16764122    -0.02700
C1854       C  0.49804877  0.86388007  0.15158351     0.07000
C1855       C  0.53410425  0.87787613  0.16116205    -0.02800
C1856       C  0.54321881  0.86093662  0.18767582    -0.02800
C1857       C  0.51721733  0.82723708  0.20031731     0.07100
C1858       C  0.48292940  0.81135513  0.18517203    -0.03000
Br1859     Br  0.45431550  0.76077520  0.17491662    -0.01500
Br1860     Br  0.42170723  0.81358939  0.16468811    -0.01600
Br1861     Br  0.59166603  0.88093479  0.20232821    -0.01600
Br1862     Br  0.57064450  0.91966085  0.13807806    -0.01600
C1863       C  0.52305953  0.62986903  0.13890937    -0.02700
C1864       C  0.52221034  0.64571727  0.10694419     0.07000
C1865       C  0.54097401  0.68315592  0.10570024    -0.02800
C1866       C  0.55005876  0.70337150  0.13793866    -0.02800
C1867       C  0.54099767  0.68582200  0.17088326     0.07100
C1868       C  0.53149526  0.64964982  0.17120242    -0.03000
Br1869     Br  0.52476671  0.62590095  0.21572187    -0.01500
Br1870     Br  0.50561537  0.57945321  0.13866804    -0.01600
Br1871     Br  0.57150331  0.75437780  0.13732377    -0.01600
Br1872     Br  0.54799701  0.70571736  0.06041546    -0.01600
loop_ 
_geom_bond_atom_site_label_1 
_geom_bond_atom_site_label_2 
_geom_bond_distance 
_geom_bond_site_symmetry_2 
_ccdc_geom_bond_type 
Fe1          O17   1.985       .  S
Fe1           O7   2.100       .  S
Fe1          O14   2.079       .  S
Fe1           O6   2.020       .  S
Fe1          O12   1.919       .  S
Fe2           O5   2.041       .  S
Fe2           O9   2.137       .  S
Fe2          O13   2.078       .  S
Fe2          O18   2.118       .  S
Fe2          O12   1.953       .  S
Fe3          O21   2.147       .  S
Fe3           O8   2.058       .  S
Fe3          O15   2.077       .  S
Fe3           O4   2.190       .  S
Fe3          O12   1.955       .  S
O4           C11   1.298       .  A
O5           C19   1.262       .  A
O6           C11   1.257       .  A
O7           C10   1.260       .  A
O8           C20   1.273       .  A
O9           C22   1.286       .  A
C10          O15   1.262       .  A
C10        C1837   1.491       .  S
C11        C1857   1.496       .  S
O13          C16   1.264       .  A
O14          C16   1.266       .  A
C16        C1867   1.490       .  S
O17          C22   1.258       .  A
O18          C20   1.284       .  A
C19          O21   1.286       .  A
C19        C1814   1.503       .  S
C20        C1824   1.510       .  S
C22        C1844   1.495       .  S
Fe23         O39   2.054       .  S
Fe23         O29   2.035       .  S
Fe23         O36   2.005       .  S
Fe23         O28   2.057       .  S
Fe23         O34   1.927       .  S
Fe24         O27   2.102       .  S
Fe24         O31   2.086       .  S
Fe24         O35   2.110       .  S
Fe24         O40   2.049       .  S
Fe24         O34   1.962       .  S
Fe25         O43   2.065       .  S
Fe25         O30   2.140       .  S
Fe25         O37   2.180       .  S
Fe25         O26   2.058       .  S
Fe25         O34   1.977       .  S
O26          C33   1.258       .  A
O27          C41   1.281       .  A
O28          C33   1.256       .  A
O29          C32   1.262       .  A
O30          C42   1.283       .  A
O31          C44   1.268       .  A
C32          O37   1.295       .  A
C32        C1804   1.501       .  S
C33        C1784   1.470       .  S
O35          C38   1.280       .  A
O36          C38   1.267       .  A
C38        C1774   1.475   1_565  S
O39          C44   1.261       .  A
O40          C42   1.264       .  A
C41          O43   1.272       .  A
C41        C1827   1.507       .  S
C42        C1764   1.505       .  S
C44        C1794   1.490       .  S
Fe45         O61   2.066       .  S
Fe45         O51   2.042       .  S
Fe45         O58   2.067       .  S
Fe45         O50   2.057       .  S
Fe45         O56   1.935       .  S
Fe46         O49   2.000       .  S
Fe46         O53   2.118       .  S
Fe46         O57   2.070       .  S
Fe46         O62   2.111       .  S
Fe46         O56   1.945       .  S
Fe47         O65   2.120       .  S
Fe47         O52   2.059       .  S
Fe47         O59   2.087       .  S
Fe47         O48   2.115       .  S
Fe47         O56   1.959       .  S
O48          C55   1.285       .  A
O49          C63   1.253       .  A
O50          C55   1.281       .  A
O51          C54   1.257       .  A
O52          C64   1.271       .  A
O53          C66   1.287       .  A
C54          O59   1.269       .  A
C54        C1727   1.491       .  S
C55        C1744   1.489       .  S
O57          C60   1.261       .  A
O58          C60   1.262       .  A
C60        C1757   1.490       .  S
O61          C66   1.278       .  A
O62          C64   1.283       .  A
C63          O65   1.277       .  A
C63        C1714   1.498       .  S
C64        C1734   1.496       .  S
C66        C1834   1.504       .  S
Fe67         O83   2.058       .  S
Fe67         O73   2.054       .  S
Fe67         O80   2.060       .  S
Fe67         O72   2.058       .  S
Fe67         O78   1.943       .  S
Fe68         O71   2.112       .  S
Fe68         O75   2.082       .  S
Fe68         O79   2.110   1_455  S
Fe68         O84   2.038       .  S
Fe68         O78   1.952       .  S
Fe69         O87   2.053       .  S
Fe69         O74   2.124       .  S
Fe69         O81   2.121       .  S
Fe69         O70   2.075       .  S
Fe69         O78   1.944       .  S
O70          C77   1.265       .  A
O71          C85   1.286       .  A
O72          C77   1.258       .  A
O73          C76   1.279       .  A
O74          C86   1.277       .  A
O75          C88   1.262       .  A
C76          O81   1.285       .  A
C76        C1694   1.496       .  S
C77        C1684   1.503   1_565  S
O79          C82   1.289       .  A
O80          C82   1.279   1_455  A
C82        C1787   1.506       .  S
O83          C88   1.259       .  A
O84          C86   1.258       .  A
C85          O87   1.271       .  A
C85        C1737   1.498       .  S
C86        C1677   1.498       .  S
C88        C1704   1.496       .  S
Fe89        O105   2.035       .  S
Fe89         O95   2.048       .  S
Fe89        O102   2.070       .  S
Fe89         O94   2.025       .  S
Fe89        O100   1.913       .  S
Fe90         O93   2.045       .  S
Fe90         O97   2.159       .  S
Fe90        O101   2.055       .  S
Fe90        O106   2.109       .  S
Fe90        O100   1.967       .  S
Fe91        O109   2.104       .  S
Fe91         O96   2.028       .  S
Fe91        O103   2.077       .  S
Fe91         O92   2.116       .  S
Fe91        O100   1.947       .  S
O92          C99   1.284       .  A
O93         C107   1.269       .  A
O94          C99   1.274       .  A
O95          C98   1.259       .  A
O96         C108   1.262       .  A
O97         C110   1.290       .  A
C98         O103   1.264       .  A
C98        C1664   1.480       .  S
C99        C1724   1.480       .  S
O101        C104   1.257       .  A
O102        C104   1.259       .  A
C104       C1847   1.477       .  S
O105        C110   1.261       .  A
O106        C108   1.277       .  A
C107        O109   1.280       .  A
C107       C1647   1.501       .  S
C108       C1637   1.482       .  S
C110       C1657   1.484       .  S
Fe111       O127   2.036       .  S
Fe111       O117   2.052       .  S
Fe111       O124   2.051       .  S
Fe111       O116   2.037       .  S
Fe111       O122   1.936       .  S
Fe112       O115   2.096       .  S
Fe112       O119   2.083       .  S
Fe112       O123   2.107       .  S
Fe112       O128   2.049       .  S
Fe112       O122   1.962       .  S
Fe113       O131   2.051       .  S
Fe113       O118   2.083       .  S
Fe113       O125   2.126       .  S
Fe113       O114   2.058       .  S
Fe113       O122   1.964       .  S
O114        C121   1.258       .  A
O115        C129   1.280       .  A
O116        C121   1.257       .  A
O117        C120   1.277       .  A
O118        C130   1.269       .  A
O119        C132   1.266       .  A
C120        O125   1.285       .  A
C120       C1617   1.499       .  S
C121       C1777   1.478   1_455  S
O123        C126   1.282       .  A
O124        C126   1.279       .  A
C126       C1687   1.485       .  S
O127        C132   1.258       .  A
O128        C130   1.264       .  A
C129        O131   1.270       .  A
C129       C1644   1.494       .  S
C130       C1607   1.476       .  S
C132       C1627   1.487       .  S
Fe133       O149   2.070       .  S
Fe133       O139   2.034       .  S
Fe133       O146   2.027       .  S
Fe133       O138   2.066       .  S
Fe133       O144   1.933       .  S
Fe134       O137   2.107       .  S
Fe134       O141   2.072       .  S
Fe134       O145   2.106       .  S
Fe134       O150   2.018       .  S
Fe134       O144   1.948       .  S
Fe135       O153   2.052       .  S
Fe135       O140   2.122       .  S
Fe135       O147   2.134       .  S
Fe135       O136   2.080       .  S
Fe135       O144   1.955       .  S
O136        C143   1.267       .  A
O137        C151   1.283       .  A
O138        C143   1.264       .  A
O139        C142   1.274       .  A
O140        C152   1.278       .  A
O141        C154   1.262       .  A
C142        O147   1.287       .  A
C142       C1597   1.496       .  S
C143       C1567   1.488       .  S
O145        C148   1.283       .  A
O146        C148   1.270       .  A
C148       C1554   1.466       .  S
O149        C154   1.263       .  A
O150        C152   1.257       .  A
C151        O153   1.271       .  A
C151       C1577   1.485       .  S
C152       C1544   1.498       .  S
C154       C1584   1.495       .  S
Fe155       O171   2.019       .  S
Fe155       O161   2.030       .  S
Fe155       O168   2.052       .  S
Fe155       O160   2.050       .  S
Fe155       O166   1.933       .  S
Fe156       O159   2.029       .  S
Fe156       O163   2.117       .  S
Fe156       O167   2.080       .  S
Fe156       O172   2.114       .  S
Fe156       O166   1.964       .  S
Fe157       O175   2.104       .  S
Fe157       O162   2.050       .  S
Fe157       O169   2.061       .  S
Fe157       O158   2.113       .  S
Fe157       O166   1.961       .  S
O158        C165   1.284       .  A
O159        C173   1.260       .  A
O160        C165   1.280       .  A
O161        C164   1.253       .  A
O162        C174   1.267       .  A
O163        C176   1.283       .  A
C164        O169   1.262       .  A
C164       C1507   1.484       .  S
C165       C1524   1.492       .  S
O167        C170   1.265       .  A
O168        C170   1.260       .  A
C170       C1534   1.491       .  S
O171        C176   1.270       .  A
O172        C174   1.284       .  A
C173        O175   1.274       .  A
C173       C1717   1.480       .  S
C174       C1574   1.493       .  S
C176       C1514   1.491       .  S
Fe177       O193   2.059       .  S
Fe177       O183   2.061       .  S
Fe177       O190   2.063       .  S
Fe177       O182   2.051       .  S
Fe177       O188   1.944       .  S
Fe178       O181   2.060       .  S
Fe178       O185   2.076       .  S
Fe178       O189   2.055       .  S
Fe178       O194   2.061       .  S
Fe178       O188   1.961       .  S
Fe179       O197   2.146       .  S
Fe179       O184   2.097       .  S
Fe179       O191   2.076       .  S
Fe179       O180   2.130       .  S
Fe179       O188   1.945       .  S
O180        C187   1.289       .  A
O181        C195   1.253       .  A
O182        C187   1.274       .  A
O183        C186   1.264       .  A
O184        C196   1.280       .  A
O185        C198   1.280       .  A
C186        O191   1.267       .  A
C186       C1474   1.490       .  S
C187       C1494   1.498       .  S
O189        C192   1.258       .  A
O190        C192   1.262       .  A
C192       C1487   1.497       .  S
O193        C198   1.278       .  A
O194        C196   1.277       .  A
C195        O197   1.278       .  A
C195       C1817   1.530       .  S
C196       C1464   1.473       .  S
C198       C1504   1.464       .  S
Fe199       O215   2.063       .  S
Fe199       O205   2.073       .  S
Fe199       O212   2.094       .  S
Fe199       O204   2.062       .  S
Fe199       O210   1.937       .  S
Fe200       O203   2.061       .  S
Fe200       O207   2.068       .  S
Fe200       O211   2.069       .  S
Fe200       O216   2.054       .  S
Fe200       O210   1.949       .  S
Fe201       O219   2.108       .  S
Fe201       O206   2.112       .  S
Fe201       O213   2.090       .  S
Fe201       O202   2.059       .  S
Fe201       O210   1.939       .  S
O202        C209   1.268       .  A
O203        C217   1.277       .  A
O204        C209   1.267       .  A
O205        C208   1.275       .  A
O206        C218   1.269       .  A
O207        C220   1.263       .  A
C208        O213   1.279       .  A
C208       C1444   1.488       .  S
C209       C1434   1.484       .  S
O211        C214   1.274       .  A
O212        C214   1.275       .  A
C214       C1564   1.503       .  S
O215        C220   1.266       .  A
O216        C218   1.261       .  A
C217        O219   1.283       .  A
C217       C1467   1.478       .  S
C218       C1424   1.492       .  S
C220       C1454   1.500       .  S
Fe221       O237   2.040       .  S
Fe221       O227   2.056       .  S
Fe221       O234   2.049       .  S
Fe221       O226   2.039       .  S
Fe221       O232   1.938       .  S
Fe222       O225   2.058       .  S
Fe222       O229   2.139       .  S
Fe222       O233   2.072       .  S
Fe222       O238   2.118       .  S
Fe222       O232   1.962       .  S
Fe223       O241   2.110       .  S
Fe223       O228   2.022       .  S
Fe223       O235   2.075       .  S
Fe223       O224   2.109       .  S
Fe223       O232   1.946       .  S
O224        C231   1.284       .  A
O225        C239   1.273       .  A
O226        C231   1.272       .  A
O227        C230   1.260       .  A
O228        C240   1.259       .  A
O229        C242   1.287       .  A
C230        O235   1.264       .  A
C230       C1407   1.490       .  S
C231       C1477   1.471       .  S
O233        C236   1.263       .  A
O234        C236   1.261       .  A
C236       C1517   1.478       .  S
O237        C242   1.274       .  A
O238        C240   1.274       .  A
C239        O241   1.284       .  A
C239       C1394   1.485       .  S
C240       C1634   1.497       .  S
C242       C1414   1.497       .  S
Fe243       O259   2.050       .  S
Fe243       O249   2.049       .  S
Fe243       O256   2.042       .  S
Fe243       O248   2.037       .  S
Fe243       O254   1.954       .  S
Fe244       O247   2.099       .  S
Fe244       O251   2.070       .  S
Fe244       O255   2.110       .  S
Fe244       O260   2.024       .  S
Fe244       O254   1.952       .  S
Fe245       O263   2.055       .  S
Fe245       O250   2.117       .  S
Fe245       O257   2.110       .  S
Fe245       O246   2.070       .  S
Fe245       O254   1.969       .  S
O246        C253   1.268       .  A
O247        C261   1.281       .  A
O248        C253   1.257       .  A
O249        C252   1.277       .  A
O250        C262   1.275       .  A
O251        C264   1.262       .  A
C252        O257   1.281       .  A
C252       C1384   1.492       .  S
C253       C1557   1.478       .  S
O255        C258   1.284       .  A
O256        C258   1.273       .  A
C258       C1437   1.478       .  S
O259        C264   1.259       .  A
O260        C262   1.260       .  A
C261        O263   1.270       .  A
C261       C1397   1.481       .  S
C262       C1364   1.501       .  S
C264       C1377   1.486       .  S
Fe265       O281   2.083       .  S
Fe265       O271   2.064       .  S
Fe265       O278   2.066       .  S
Fe265       O270   2.068       .  S
Fe265       O276   1.933       .  S
Fe266       O269   2.060       .  S
Fe266       O273   2.060       .  S
Fe266       O277   2.084       .  S
Fe266       O282   2.048       .  S
Fe266       O276   1.947       .  S
Fe267       O285   2.099       .  S
Fe267       O272   2.142       .  S
Fe267       O279   2.097       .  S
Fe267       O268   2.054       .  S
Fe267       O276   1.944       .  S
O268        C275   1.263       .  A
O269        C283   1.279       .  A
O270        C275   1.266       .  A
O271        C274   1.277       .  A
O272        C284   1.273       .  A
O273        C286   1.261       .  A
C274        O279   1.283       .  A
C274       C1354   1.482       .  S
C275       C1327   1.496       .  S
O277        C280   1.277       .  A
O278        C280   1.274       .  A
C280       C1317   1.476       .  S
O281        C286   1.270       .  A
O282        C284   1.247       .  A
C283        O285   1.281       .  A
C283       C1334   1.490       .  S
C284       C1427   1.515       .  S
C286       C1344   1.506       .  S
Fe287       O303   2.029       .  S
Fe287       O293   2.061       .  S
Fe287       O300   2.068       .  S
Fe287       O292   2.036       .  S
Fe287       O298   1.945       .  S
Fe288       O291   2.030       .  S
Fe288       O295   2.100       .  S
Fe288       O299   2.071       .  S
Fe288       O304   2.096       .  S
Fe288       O298   1.945       .  S
Fe289       O307   2.127       .  S
Fe289       O294   2.056       .  S
Fe289       O301   2.072       .  S
Fe289       O290   2.138       .  S
Fe289       O298   1.956       .  S
O290        C297   1.288       .  A
O291        C305   1.261       .  A
O292        C297   1.272       .  A
O293        C296   1.264       .  A
O294        C306   1.272       .  A
O295        C308   1.282       .  A
C296        O301   1.264       .  A
C296       C1304   1.489       .  S
C297       C1624   1.499       .  S
O299        C302   1.263       .  A
O300        C302   1.264       .  A
C302       C1697   1.490       .  S
O303        C308   1.270       .  A
O304        C306   1.281       .  A
C305        O307   1.277       .  A
C305       C1287   1.505       .  S
C306       C1337   1.480       .  S
C308       C1294   1.462   1_545  S
Fe309       O325   2.064       .  S
Fe309       O315   2.047       .  S
Fe309       O322   2.043       .  S
Fe309       O314   2.064       .  S
Fe309       O320   1.943       .  S
Fe310       O313   2.093       .  S
Fe310       O317   2.077       .  S
Fe310       O321   2.104       .  S
Fe310       O326   2.035       .  S
Fe310       O320   1.964       .  S
Fe311       O329   2.073       .  S
Fe311       O316   2.101       .  S
Fe311       O323   2.118       .  S
Fe311       O312   2.083       .  S
Fe311       O320   1.961       .  S
O312        C319   1.266       .  A
O313        C327   1.280       .  A
O314        C319   1.263       .  A
O315        C318   1.275       .  A
O316        C328   1.272       .  A
O317        C330   1.264       .  A
C318        O323   1.284       .  A
C318       C1274   1.496       .  S
C319       C1247   1.499       .  S
O321        C324   1.282       .  A
O322        C324   1.275       .  A
C324       C1324   1.481       .  S
O325        C330   1.263       .  A
O326        C328   1.261       .  A
C327        O329   1.275       .  A
C327       C1257   1.489       .  S
C328       C1547   1.485       .  S
C330       C1267   1.491       .  S
Fe331       O347   2.031       .  S
Fe331       O337   2.061       .  S
Fe331       O344   2.058       .  S
Fe331       O336   2.043       .  S
Fe331       O342   1.937       .  S
Fe332       O335   2.039       .  S
Fe332       O339   2.105       .  S
Fe332       O343   2.080       .  S
Fe332       O348   2.098       .  S
Fe332       O342   1.965       .  S
Fe333       O351   2.117       .  S
Fe333       O338   2.073       .  S
Fe333       O345   2.082       .  S
Fe333       O334   2.144       .  S
Fe333       O342   1.954       .  S
O334        C341   1.289       .  A
O335        C349   1.261       .  A
O336        C341   1.276       .  A
O337        C340   1.261       .  A
O338        C350   1.275       .  A
O339        C352   1.281       .  A
C340        O345   1.265       .  A
C340       C1234   1.494   1_545  S
C341       C1797   1.499       .  S
O343        C346   1.265       .  A
O344        C346   1.261       .  A
C346       C1614   1.491       .  S
O347        C352   1.274       .  A
O348        C350   1.282       .  A
C349        O351   1.277       .  A
C349       C1227   1.494       .  S
C350       C1254   1.493       .  S
C352       C1307   1.480   1_655  S
Fe353       O369   2.079       .  S
Fe353       O359   2.054       .  S
Fe353       O366   2.043       .  S
Fe353       O358   2.054       .  S
Fe353       O364   1.941       .  S
Fe354       O357   2.112       .  S
Fe354       O361   2.065       .  S
Fe354       O365   2.131       .  S
Fe354       O370   2.027       .  S
Fe354       O364   1.951       .  S
Fe355       O373   2.052       .  S
Fe355       O360   2.114       .  S
Fe355       O367   2.116       .  S
Fe355       O356   2.058       .  S
Fe355       O364   1.955       .  S
O356        C363   1.263       .  A
O357        C371   1.284       .  A
O358        C363   1.259       .  A
O359        C362   1.278       .  A
O360        C372   1.275       .  A
O361        C374   1.259       .  A
C362        O367   1.283       .  A
C362       C1214   1.495       .  S
C363       C1314   1.499       .  S
O365        C368   1.287       .  A
O366        C368   1.272       .  A
C368       C1244   1.509       .  S
O369        C374   1.265       .  A
O370        C372   1.258       .  A
C371        O373   1.270       .  A
C371       C1194   1.490       .  S
C372       C1367   1.487       .  S
C374       C1207   1.493       .  S
Fe375       O391   2.037       .  S
Fe375       O381   2.050       .  S
Fe375       O388   2.040       .  S
Fe375       O380   2.107       .  S
Fe375       O386   1.905       .  S
Fe376       O379   2.107       .  S
Fe376       O383   2.117       .  S
Fe376       O387   2.075       .  S
Fe376       O392   2.146       .  S
Fe376       O386   1.929       .  S
Fe377       O395   2.077       .  S
Fe377       O382   2.058       .  S
Fe377       O389   2.124       .  S
Fe377       O378   2.076       .  S
Fe377       O386   1.949       .  S
O378        C385   1.278       .  A
O379        C393   1.287       .  A
O380        C385   1.279       .  A
O381        C384   1.250       .  A
O382        C394   1.253       .  A
O383        C396   1.282       .  A
C384        O389   1.268       .  A
C384       C1807   1.496       .  S
C385       C1237   1.513       .  S
O387        C390   1.272       .  A
O388        C390   1.265       .  A
C390       C1297   1.473   1_655  S
O391        C396   1.268       .  A
O392        C394   1.275       .  A
C393        O395   1.288       .  A
C393       C1197   1.502       .  S
C394       C1184   1.534       .  S
C396       C1707   1.486       .  S
Fe397       O413   2.051       .  S
Fe397       O403   2.044       .  S
Fe397       O410   2.038       .  S
Fe397       O402   2.040       .  S
Fe397       O408   1.929       .  S
Fe398       O401   2.107       .  S
Fe398       O405   2.073       .  S
Fe398       O409   2.120       .  S
Fe398       O414   2.045       .  S
Fe398       O408   1.949       .  S
Fe399       O417   2.062       .  S
Fe399       O404   2.087       .  S
Fe399       O411   2.109       .  S
Fe399       O400   2.076       .  S
Fe399       O408   1.948       .  S
O400        C407   1.262       .  A
O401        C415   1.283       .  A
O402        C407   1.252       .  A
O403        C406   1.279       .  A
O404        C416   1.270       .  A
O405        C418   1.261       .  A
C406        O411   1.283       .  A
C406       C1484   1.487       .  S
C407       C1154   1.498       .  S
O409        C412   1.285       .  A
O410        C412   1.274       .  A
C412       C1174   1.504       .  S
O413        C418   1.259       .  A
O414        C416   1.263       .  A
C415        O417   1.272       .  A
C415       C1164   1.500       .  S
C416       C1144   1.478       .  S
C418       C1527   1.484       .  S
Fe419       O435   2.066       .  S
Fe419       O425   2.054       .  S
Fe419       O432   2.055       .  S
Fe419       O424   2.054       .  S
Fe419       O430   1.940       .  S
Fe420       O423   2.064       .  S
Fe420       O427   2.078       .  S
Fe420       O431   2.081       .  S
Fe420       O436   2.088       .  S
Fe420       O430   1.962       .  S
Fe421       O439   2.119       .  S
Fe421       O426   2.098       .  S
Fe421       O433   2.071       .  S
Fe421       O422   2.097       .  S
Fe421       O430   1.953       .  S
O422        C429   1.280       .  A
O423        C437   1.266       .  A
O424        C429   1.272       .  A
O425        C428   1.264       .  A
O426        C438   1.279       .  A
O427        C440   1.275       .  A
C428        O433   1.269       .  A
C428       C1107   1.487   1_565  S
C429       C1124   1.482       .  S
O431        C434   1.266       .  A
O432        C434   1.262       .  A
C434       C1134   1.503       .  S
O435        C440   1.275       .  A
O436        C438   1.280       .  A
C437        O439   1.277       .  A
C437       C1187   1.509       .  S
C438       C1167   1.498       .  S
C440       C1114   1.500       .  S
Fe441       O457   2.047       .  S
Fe441       O447   2.056       .  S
Fe441       O454   2.059       .  S
Fe441       O446   2.043       .  S
Fe441       O452   1.939       .  S
Fe442       O445   2.094       .  S
Fe442       O449   2.086       .  S
Fe442       O453   2.096       .  S
Fe442       O458   2.033       .  S
Fe442       O452   1.967       .  S
Fe443       O461   2.075       .  S
Fe443       O448   2.112       .  S
Fe443       O455   2.127       .  S
Fe443       O444   2.087       .  S
Fe443       O452   1.962       .  S
O444        C451   1.260       .  A
O445        C459   1.280       .  A
O446        C451   1.261       .  A
O447        C450   1.278       .  A
O448        C460   1.276       .  A
O449        C462   1.267       .  A
C450        O455   1.286       .  A
C450       C1404   1.504       .  S
C451       C1097   1.504       .  S
O453        C456   1.279       .  A
O454        C456   1.279       .  A
C456       C1157   1.480       .  S
O457        C462   1.259       .  A
O458        C460   1.262       .  A
C459        O461   1.274       .  A
C459       C1084   1.498       .  S
C460       C1074   1.488       .  S
C462       C1497   1.489       .  S
Fe463       O479   2.065       .  S
Fe463       O469   2.051       .  S
Fe463       O476   2.063       .  S
Fe463       O468   2.050       .  S
Fe463       O474   1.943       .  S
Fe464       O467   2.024       .  S
Fe464       O471   2.125   1_455  S
Fe464       O475   2.080       .  S
Fe464       O480   2.113       .  S
Fe464       O474   1.950       .  S
Fe465       O483   2.121       .  S
Fe465       O470   2.062       .  S
Fe465       O477   2.083       .  S
Fe465       O466   2.126       .  S
Fe465       O474   1.964       .  S
O466        C473   1.284       .  A
O467        C481   1.259       .  A
O468        C473   1.276       .  A
O469        C472   1.261       .  A
O470        C482   1.273       .  A
O471        C484   1.287       .  A
C472        O477   1.267       .  A
C472       C1044   1.490       .  S
C473       C1054   1.498       .  S
O475        C478   1.264       .  A
O476        C478   1.262       .  A
C478       C1064   1.495   1_556  S
O479        C484   1.277   1_455  A
O480        C482   1.285       .  A
C481        O483   1.276       .  A
C481       C1224   1.502       .  S
C482       C1087   1.498       .  S
C484       C1104   1.496       .  S
Fe485       O501   2.062       .  S
Fe485       O491   2.049       .  S
Fe485       O498   2.042       .  S
Fe485       O490   2.060       .  S
Fe485       O496   1.932       .  S
Fe486       O489   2.103       .  S
Fe486       O493   2.073       .  S
Fe486       O497   2.110       .  S
Fe486       O502   2.022       .  S
Fe486       O496   1.963       .  S
Fe487       O505   2.062       .  S
Fe487       O492   2.118       .  S
Fe487       O499   2.136       .  S
Fe487       O488   2.075       .  S
Fe487       O496   1.962       .  S
O488        C495   1.264       .  A
O489        C503   1.281       .  A
O490        C495   1.263       .  A
O491        C494   1.276       .  A
O492        C504   1.277       .  A
O493        C506   1.264       .  A
C494        O499   1.287       .  A
C494       C1537   1.499       .  S
C495       C1177   1.485       .  S
O497        C500   1.283       .  A
O498        C500   1.272       .  A
C500       C1094   1.489       .  S
O501        C506   1.263       .  A
O502        C504   1.259       .  A
C503        O505   1.272       .  A
C503       C1034   1.498       .  S
C504       C1027   1.483       .  S
C506       C1417   1.489       .  S
Fe507       O523   2.037       .  S
Fe507       O513   2.062       .  S
Fe507       O520   2.073       .  S
Fe507       O512   2.045       .  S
Fe507       O518   1.931       .  S
Fe508       O511   2.021       .  S
Fe508       O515   2.124   1_565  S
Fe508       O519   2.060       .  S
Fe508       O524   2.103       .  S
Fe508       O518   1.950       .  S
Fe509       O527   2.127       .  S
Fe509       O514   2.060       .  S
Fe509       O521   2.082       .  S
Fe509       O510   2.123       .  S
Fe509       O518   1.947       .  S
O510        C517   1.285       .  A
O511        C525   1.258       .  A
O512        C517   1.276       .  A
O513        C516   1.261       .  A
O514        C526   1.271       .  A
O515        C528   1.286       .  A
C516        O521   1.266       .  A
C516       C1117   1.507   1_455  S
C517       C1014   1.497       .  S
O519        C522   1.257       .  A
O520        C522   1.263       .  A
C522       C1007   1.486       .  S
O523        C528   1.274   1_565  A
O524        C526   1.281       .  A
C525        O527   1.279       .  A
C525       C1284   1.489       .  S
C526       C1037   1.500       .  S
C528       C1047   1.496       .  S
Fe529       O545   2.028       .  S
Fe529       O535   2.048       .  S
Fe529       O542   2.057       .  S
Fe529       O534   2.041       .  S
Fe529       O540   1.944       .  S
Fe530       O533   2.032       .  S
Fe530       O537   2.105       .  S
Fe530       O541   2.058       .  S
Fe530       O546   2.078       .  S
Fe530       O540   1.964       .  S
Fe531       O549   2.128   1_556  S
Fe531       O536   2.063       .  S
Fe531       O543   2.075       .  S
Fe531       O532   2.132       .  S
Fe531       O540   1.953       .  S
O532        C539   1.287       .  A
O533        C547   1.257   1_556  A
O534        C539   1.277       .  A
O535        C538   1.258       .  A
O536        C548   1.272       .  A
O537        C550   1.284       .  A
C538        O543   1.267       .  A
C538        C977   1.501       .  S
C539       C1347   1.497       .  S
O541        C544   1.256       .  A
O542        C544   1.259       .  A
C544       C1217   1.484       .  S
O545        C550   1.270       .  A
O546        C548   1.275       .  A
C547        O549   1.281       .  A
C547        C964   1.512       .  S
C548        C997   1.475       .  S
C550        C984   1.464       .  S
Fe551       O567   2.058       .  S
Fe551       O557   2.043       .  S
Fe551       O564   2.108       .  S
Fe551       O556   2.057       .  S
Fe551       O562   1.912       .  S
Fe552       O555   2.059       .  S
Fe552       O559   2.093       .  S
Fe552       O563   2.068       .  S
Fe552       O568   2.043   1_554  S
Fe552       O562   1.950       .  S
Fe553       O571   2.105       .  S
Fe553       O558   2.133   1_554  S
Fe553       O565   2.112       .  S
Fe553       O554   2.079       .  S
Fe553       O562   1.929       .  S
O554        C561   1.272       .  A
O555        C569   1.282       .  A
O556        C561   1.266       .  A
O557        C560   1.271       .  A
O558        C570   1.272       .  A
O559        C572   1.265       .  A
C560        O565   1.282       .  A
C560       C1864   1.483       .  S
C561        C957   1.476       .  S
O563        C566   1.275       .  A
O564        C566   1.278       .  A
C566        C944   1.507       .  S
O567        C572   1.254       .  A
O568        C570   1.250       .  A
C569        O571   1.286       .  A
C569        C994   1.484       .  S
C570       C1077   1.523       .  S
C572       C1654   1.476       .  S
Fe573       O589   2.055       .  S
Fe573       O579   2.066       .  S
Fe573       O586   2.048       .  S
Fe573       O578   2.040       .  S
Fe573       O584   1.952       .  S
Fe574       O577   2.058       .  S
Fe574       O581   2.141       .  S
Fe574       O585   2.064       .  S
Fe574       O590   2.127   1_556  S
Fe574       O584   1.955       .  S
Fe575       O593   2.082       .  S
Fe575       O580   2.036       .  S
Fe575       O587   2.065       .  S
Fe575       O576   2.106       .  S
Fe575       O584   1.964       .  S
O576        C583   1.283       .  A
O577        C591   1.268       .  A
O578        C583   1.272       .  A
O579        C582   1.262       .  A
O580        C592   1.259   1_556  A
O581        C594   1.291       .  A
C582        O587   1.260       .  A
C582       C1357   1.486       .  S
C583        C974   1.471       .  S
O585        C588   1.263       .  A
O586        C588   1.259       .  A
C588        C927   1.493       .  S
O589        C594   1.279       .  A
O590        C592   1.282       .  A
C591        O593   1.275       .  A
C591        C934   1.474       .  S
C592        C917   1.513       .  S
C594       C1264   1.503       .  S
Fe595       O611   2.053       .  S
Fe595       O601   2.049       .  S
Fe595       O608   2.090       .  S
Fe595       O600   2.056       .  S
Fe595       O606   1.907       .  S
Fe596       O599   2.069       .  S
Fe596       O603   2.117       .  S
Fe596       O607   2.069       .  S
Fe596       O612   2.059   1_554  S
Fe596       O606   1.955       .  S
Fe597       O615   2.098       .  S
Fe597       O602   2.117   1_554  S
Fe597       O609   2.099       .  S
Fe597       O598   2.066       .  S
Fe597       O606   1.927       .  S
O598        C605   1.270       .  A
O599        C613   1.284       .  A
O600        C605   1.267       .  A
O601        C604   1.270       .  A
O602        C614   1.272       .  A
O603        C616   1.269       .  A
C604        O609   1.281       .  A
C604       C1754   1.479       .  S
C605        C904   1.485       .  S
O607        C610   1.272       .  A
O608        C610   1.275       .  A
C610        C954   1.471       .  S
O611        C616   1.255       .  A
O612        C614   1.255       .  A
C613        O615   1.283       .  A
C613        C937   1.478       .  S
C614       C1147   1.511       .  S
C616       C1854   1.493       .  S
Fe617       O633   2.061       .  S
Fe617       O623   2.055       .  S
Fe617       O630   2.048       .  S
Fe617       O622   2.056       .  S
Fe617       O628   1.947       .  S
Fe618       O621   2.062       .  S
Fe618       O625   2.059       .  S
Fe618       O629   2.089       .  S
Fe618       O634   2.027   1_554  S
Fe618       O628   1.963       .  S
Fe619       O637   2.063       .  S
Fe619       O624   2.113   1_554  S
Fe619       O631   2.126       .  S
Fe619       O620   2.079       .  S
Fe619       O628   1.967       .  S
O620        C627   1.266       .  A
O621        C635   1.271       .  A
O622        C627   1.263       .  A
O623        C626   1.277       .  A
O624        C636   1.276       .  A
O625        C638   1.259       .  A
C626        O631   1.285       .  A
C626       C1667   1.496       .  S
C627        C947   1.488       .  S
O629        C632   1.277       .  A
O630        C632   1.275       .  A
C632        C907   1.473       .  S
O633        C638   1.262       .  A
O634        C636   1.261       .  A
C635        O637   1.272       .  A
C635        C897   1.466       .  S
C636       C1024   1.497       .  S
C638       C1747   1.484       .  S
Fe639       O655   2.083       .  S
Fe639       O645   2.039       .  S
Fe639       O652   2.057       .  S
Fe639       O644   2.061       .  S
Fe639       O650   1.921       .  S
Fe640       O643   2.050   1_556  S
Fe640       O647   2.073       .  S
Fe640       O651   2.072       .  S
Fe640       O656   2.052       .  S
Fe640       O650   1.948       .  S
Fe641       O659   2.146   1_556  S
Fe641       O646   2.105       .  S
Fe641       O653   2.069       .  S
Fe641       O642   2.114       .  S
Fe641       O650   1.939       .  S
O642        C649   1.284       .  A
O643        C657   1.245       .  A
O644        C649   1.277       .  A
O645        C648   1.262       .  A
O646        C658   1.285       .  A
O647        C660   1.282       .  A
C648        O653   1.269       .  A
C648        C987   1.471       .  S
C649       C1204   1.495       .  S
O651        C654   1.261       .  A
O652        C654   1.258       .  A
C654       C1277   1.506       .  S
O655        C660   1.282       .  A
O656        C658   1.281       .  A
C657        O659   1.273       .  A
C657        C884   1.522       .  S
C658        C894   1.473       .  S
C660        C924   1.479       .  S
Fe661       O677   2.064       .  S
Fe661       O667   2.035       .  S
Fe661       O674   2.025       .  S
Fe661       O666   2.063       .  S
Fe661       O672   1.939       .  S
Fe662       O665   2.096       .  S
Fe662       O669   2.067       .  S
Fe662       O673   2.102       .  S
Fe662       O678   2.029       .  S
Fe662       O672   1.947       .  S
Fe663       O681   2.042       .  S
Fe663       O668   2.143       .  S
Fe663       O675   2.153       .  S
Fe663       O664   2.076       .  S
Fe663       O672   1.944       .  S
O664        C671   1.264       .  A
O665        C679   1.279       .  A
O666        C671   1.263       .  A
O667        C670   1.273       .  A
O668        C680   1.284       .  A
O669        C682   1.262       .  A
C670        O675   1.293       .  A
C670       C1137   1.498       .  S
C671        C867   1.482       .  S
O673        C676   1.281       .  A
O674        C676   1.269       .  A
C676        C854   1.460   1_655  S
O677        C682   1.263       .  A
O678        C680   1.259       .  A
C679        O681   1.268       .  A
C679        C877   1.477       .  S
C680       C1674   1.522       .  S
C682       C1017   1.481       .  S
Fe683       O699   2.029       .  S
Fe683       O689   2.065       .  S
Fe683       O696   2.061       .  S
Fe683       O688   2.035       .  S
Fe683       O694   1.940       .  S
Fe684       O687   2.043       .  S
Fe684       O691   2.105       .  S
Fe684       O695   2.075       .  S
Fe684       O700   2.094       .  S
Fe684       O694   1.957       .  S
Fe685       O703   2.120       .  S
Fe685       O690   2.043       .  S
Fe685       O697   2.067       .  S
Fe685       O686   2.148       .  S
Fe685       O694   1.944       .  S
O686        C693   1.292       .  A
O687        C701   1.261       .  A
O688        C693   1.275       .  A
O689        C692   1.262       .  A
O690        C702   1.268       .  A
O691        C704   1.284       .  A
C692        O697   1.261       .  A
C692        C834   1.480       .  S
C693       C1374   1.499       .  S
O695        C698   1.263       .  A
O696        C698   1.261       .  A
C698       C1447   1.489       .  S
O699        C704   1.271       .  A
O700        C702   1.279       .  A
C701        O703   1.281       .  A
C701        C967   1.506       .  S
C702        C874   1.476       .  S
C704        C847   1.464       .  S
Fe705       O721   2.072       .  S
Fe705       O711   2.061       .  S
Fe705       O718   2.095       .  S
Fe705       O710   2.066       .  S
Fe705       O716   1.930       .  S
Fe706       O709   2.076       .  S
Fe706       O713   2.071       .  S
Fe706       O717   2.085       .  S
Fe706       O722   2.049       .  S
Fe706       O716   1.952       .  S
Fe707       O725   2.136       .  S
Fe707       O712   2.157       .  S
Fe707       O719   2.120       .  S
Fe707       O708   2.080       .  S
Fe707       O716   1.941       .  S
O708        C715   1.270       .  A
O709        C723   1.285       .  A
O710        C715   1.266       .  A
O711        C714   1.277       .  A
O712        C724   1.272       .  A
O713        C726   1.260       .  A
C714        O719   1.287       .  A
C714       C1067   1.497       .  S
C715        C814   1.493   1_655  S
O717        C720   1.282       .  A
O718        C720   1.281       .  A
C720        C864   1.506   1_545  S
O721        C726   1.265       .  A
O722        C724   1.248       .  A
C723        O725   1.291       .  A
C723        C824   1.504       .  S
C724       C1767   1.539       .  S
C726       C1127   1.508       .  S
Fe727       O743   2.102       .  S
Fe727       O733   2.049       .  S
Fe727       O740   2.065       .  S
Fe727       O732   2.066       .  S
Fe727       O738   1.935       .  S
Fe728       O731   2.038       .  S
Fe728       O735   2.080       .  S
Fe728       O739   2.055       .  S
Fe728       O744   2.076       .  S
Fe728       O738   1.950       .  S
Fe729       O747   2.137       .  S
Fe729       O734   2.126       .  S
Fe729       O741   2.071       .  S
Fe729       O730   2.108       .  S
Fe729       O738   1.939       .  S
O730        C737   1.283       .  A
O731        C745   1.253       .  A
O732        C737   1.277       .  A
O733        C736   1.263       .  A
O734        C746   1.289       .  A
O735        C748   1.283       .  A
C736        O741   1.269       .  A
C736        C804   1.485       .  S
C737       C1587   1.499       .  S
O739        C742   1.256       .  A
O740        C742   1.262       .  A
C742       C1387   1.498       .  S
O743        C748   1.284       .  A
O744        C746   1.285       .  A
C745        O747   1.270       .  A
C745        C887   1.506       .  S
C746        C827   1.503       .  S
C748        C837   1.502       .  S
Fe749       O765   2.019       .  S
Fe749       O755   2.048       .  S
Fe749       O762   2.057       .  S
Fe749       O754   2.034       .  S
Fe749       O760   1.947       .  S
Fe750       O753   2.030       .  S
Fe750       O757   2.127       .  S
Fe750       O761   2.062       .  S
Fe750       O766   2.115       .  S
Fe750       O760   1.950       .  S
Fe751       O769   2.128       .  S
Fe751       O756   2.057       .  S
Fe751       O763   2.069       .  S
Fe751       O752   2.132       .  S
Fe751       O760   1.947       .  S
O752        C759   1.288       .  A
O753        C767   1.257       .  A
O754        C759   1.277       .  A
O755        C758   1.258       .  A
O756        C768   1.269       .  A
O757        C770   1.289       .  A
C758        O763   1.264       .  A
C758        C844   1.495       .  S
C759       C1457   1.491       .  S
O761        C764   1.259       .  A
O762        C764   1.259       .  A
C764       C1594   1.482       .  S
O765        C770   1.270       .  A
O766        C768   1.283       .  A
C767        O769   1.282       .  A
C767        C914   1.505       .  S
C768        C797   1.490       .  S
C770        C807   1.467       .  S
Fe771       O787   2.069       .  S
Fe771       O777   2.058       .  S
Fe771       O784   2.067       .  S
Fe771       O776   2.051       .  S
Fe771       O782   1.942       .  S
Fe772       O775   2.086       .  S
Fe772       O779   2.060       .  S
Fe772       O783   2.103       .  S
Fe772       O788   2.040       .  S
Fe772       O782   1.952       .  S
Fe773       O791   2.097       .  S
Fe773       O778   2.127       .  S
Fe773       O785   2.108       .  S
Fe773       O774   2.052       .  S
Fe773       O782   1.949       .  S
O774        C781   1.261       .  A
O775        C789   1.284       .  A
O776        C781   1.263       .  A
O777        C780   1.278       .  A
O778        C790   1.270       .  A
O779        C792   1.260       .  A
C780        O785   1.286       .  A
C780       C1004   1.487       .  S
C781        C857   1.475   1_545  S
O783        C786   1.282       .  A
O784        C786   1.276       .  A
C786        C817   1.482       .  S
O787        C792   1.266       .  A
O788        C790   1.245       .  A
C789        O791   1.279       .  A
C789        C794   1.486       .  S
C790       C1604   1.508       .  S
C792       C1057   1.505       .  S
C793        C794   1.411       .  A
C793        C798   1.415       .  A
C793       Br800   1.927       .  S
C794        C795   1.411       .  A
C795        C796   1.413       .  A
C795       Br802   1.931       .  S
C796        C797   1.414       .  A
C796       Br801   1.928       .  S
C797        C798   1.411       .  A
C798       Br799   1.927       .  S
C803        C804   1.406       .  A
C803        C808   1.402       .  A
C803       Br810   1.922       .  S
C804        C805   1.421       .  A
C805        C806   1.409       .  A
C805       Br812   1.922       .  S
C806        C807   1.402       .  A
C806       Br811   1.932       .  S
C807        C808   1.408       .  A
C808       Br809   1.924       .  S
C813        C814   1.407       .  A
C813        C818   1.412       .  A
C813       Br820   1.924   1_455  S
C814        C815   1.417       .  A
C815        C816   1.407       .  A
C815       Br822   1.909       .  S
C816        C817   1.404       .  A
C816       Br821   1.936       .  S
C817        C818   1.412       .  A
C818       Br819   1.915       .  S
C823        C824   1.413       .  A
C823        C828   1.417       .  A
C823       Br830   1.932       .  S
C824        C825   1.417       .  A
C825        C826   1.417       .  A
C825       Br832   1.926       .  S
C826        C827   1.414       .  A
C826       Br831   1.933       .  S
C827        C828   1.418       .  A
C828       Br829   1.929       .  S
C833        C834   1.409       .  A
C833        C838   1.414       .  A
C833       Br840   1.927       .  S
C834        C835   1.404       .  A
C835        C836   1.403       .  A
C835       Br842   1.938       .  S
C836        C837   1.424       .  A
C836       Br841   1.926       .  S
C837        C838   1.421       .  A
C838       Br839   1.932       .  S
C843        C844   1.429       .  A
C843        C848   1.402       .  A
C843       Br850   1.933       .  S
C844        C845   1.420       .  A
C845        C846   1.406       .  A
C845       Br852   1.928       .  S
C846        C847   1.407       .  A
C846       Br851   1.935       .  S
C847        C848   1.395       .  A
C848       Br849   1.926       .  S
C853        C854   1.398       .  A
C853        C858   1.400       .  A
C853       Br860   1.930       .  S
C854        C855   1.409       .  A
C855        C856   1.404       .  A
C855       Br862   1.921       .  S
C856        C857   1.406       .  A
C856       Br861   1.924       .  S
C857        C858   1.412       .  A
C858       Br859   1.910       .  S
C863        C864   1.424       .  A
C863        C868   1.414       .  A
C863       Br870   1.928       .  S
C864        C865   1.428       .  A
C865        C866   1.405       .  A
C865       Br872   1.935   1_565  S
C866        C867   1.404       .  A
C866       Br871   1.937       .  S
C867        C868   1.407       .  A
C868       Br869   1.931       .  S
C873        C874   1.411       .  A
C873        C878   1.405       .  A
C873       Br880   1.933       .  S
C874        C875   1.410       .  A
C875        C876   1.409       .  A
C875       Br882   1.930       .  S
C876        C877   1.412       .  A
C876       Br881   1.931       .  S
C877        C878   1.409       .  A
C878       Br879   1.925       .  S
C883        C884   1.433       .  A
C883        C888   1.412       .  A
C883       Br890   1.943       .  S
C884        C885   1.421       .  A
C885        C886   1.425       .  A
C885       Br892   1.931       .  S
C886        C887   1.416       .  A
C886       Br891   1.918       .  S
C887        C888   1.407       .  A
C888       Br889   1.939       .  S
C893        C894   1.415   1_554  A
C893        C898   1.406   1_655  A
C893       Br900   1.933       .  S
C894        C895   1.409       .  A
C895        C896   1.404   1_655  A
C895       Br902   1.929       .  S
C896        C897   1.407   1_556  A
C896       Br901   1.931       .  S
C897        C898   1.406       .  A
C898       Br899   1.931       .  S
C903        C904   1.423       .  A
C903        C908   1.404       .  A
C903       Br910   1.932       .  S
C904        C905   1.417       .  A
C905        C906   1.406       .  A
C905       Br912   1.933   1_554  S
C906        C907   1.405       .  A
C906       Br911   1.920   1_554  S
C907        C908   1.398       .  A
C908       Br909   1.929       .  S
C913        C914   1.408       .  A
C913        C918   1.417       .  A
C913       Br920   1.937       .  S
C914        C915   1.427       .  A
C915        C916   1.416       .  A
C915       Br922   1.935       .  S
C916        C917   1.412       .  A
C916       Br921   1.936       .  S
C917        C918   1.433       .  A
C918       Br919   1.938       .  S
C923        C924   1.403       .  A
C923        C928   1.403       .  A
C923       Br930   1.936       .  S
C924        C925   1.411       .  A
C925        C926   1.409       .  A
C925       Br932   1.911   1_556  S
C926        C927   1.413       .  A
C926       Br931   1.935   1_556  S
C927        C928   1.422       .  A
C928       Br929   1.920       .  S
C933        C934   1.405       .  A
C933        C938   1.407   1_545  A
C933       Br940   1.930       .  S
C934        C935   1.411   1_556  A
C935        C936   1.409   1_545  A
C935       Br942   1.926       .  S
C936        C937   1.409       .  A
C936       Br941   1.930       .  S
C937        C938   1.415   1_554  A
C938       Br939   1.930       .  S
C943        C944   1.427       .  A
C943        C948   1.406       .  A
C943       Br950   1.935       .  S
C944        C945   1.426       .  A
C945        C946   1.415       .  A
C945       Br952   1.935       .  S
C946        C947   1.409       .  A
C946       Br951   1.931   1_554  S
C947        C948   1.407       .  A
C948       Br949   1.940       .  S
C953        C954   1.402       .  A
C953        C958   1.403       .  A
C953       Br960   1.930       .  S
C954        C955   1.413       .  A
C955        C956   1.409       .  A
C955       Br962   1.922       .  S
C956        C957   1.403       .  A
C956       Br961   1.922       .  S
C957        C958   1.409       .  A
C958       Br959   1.916       .  S
C963        C964   1.411       .  A
C963        C968   1.416       .  A
C963       Br970   1.933       .  S
C964        C965   1.432       .  A
C965        C966   1.416       .  A
C965       Br972   1.935       .  S
C966        C967   1.408       .  A
C966       Br971   1.938       .  S
C967        C968   1.426       .  A
C968       Br969   1.932       .  S
C973        C974   1.395       .  A
C973        C978   1.406       .  A
C973       Br980   1.929       .  S
C974        C975   1.407       .  A
C975        C976   1.409       .  A
C975       Br982   1.927       .  S
C976        C977   1.419       .  A
C976       Br981   1.931   1_556  S
C977        C978   1.431       .  A
C978       Br979   1.930       .  S
C983        C984   1.398       .  A
C983        C988   1.404       .  A
C983       Br990   1.929       .  S
C984        C985   1.412       .  A
C985        C986   1.403       .  A
C985       Br992   1.919       .  S
C986        C987   1.401       .  A
C986       Br991   1.927   1_556  S
C987        C988   1.416       .  A
C988       Br989   1.917       .  S
C993        C994   1.412       .  A
C993        C998   1.408       .  A
C993      Br1000   1.930       .  S
C994        C995   1.417   1_554  A
C995        C996   1.408       .  A
C995      Br1002   1.934       .  S
C996        C997   1.407       .  A
C996      Br1001   1.932       .  S
C997        C998   1.409   1_556  A
C998       Br999   1.929       .  S
C1003      C1004   1.410       .  A
C1003      C1008   1.409   1_554  A
C1003     Br1010   1.926   1_554  S
C1004      C1005   1.413   1_545  A
C1005      C1006   1.414       .  A
C1005     Br1012   1.928       .  S
C1006      C1007   1.410   1_554  A
C1006     Br1011   1.926       .  S
C1007      C1008   1.412   1_565  A
C1008     Br1009   1.930       .  S
C1013      C1014   1.415       .  A
C1013      C1018   1.410   1_456  A
C1013     Br1020   1.930       .  S
C1014      C1015   1.420   1_455  A
C1015      C1016   1.410       .  A
C1015     Br1022   1.930       .  S
C1016      C1017   1.406   1_556  A
C1016     Br1021   1.928       .  S
C1017      C1018   1.410       .  A
C1018     Br1019   1.930   1_655  S
C1023      C1024   1.417       .  A
C1023      C1028   1.404       .  A
C1023     Br1030   1.934       .  S
C1024      C1025   1.417       .  A
C1025      C1026   1.420       .  A
C1025     Br1032   1.928       .  S
C1026      C1027   1.414       .  A
C1026     Br1031   1.927       .  S
C1027      C1028   1.406       .  A
C1028     Br1029   1.934       .  S
C1033      C1034   1.413       .  A
C1033      C1038   1.414       .  A
C1033     Br1040   1.934       .  S
C1034      C1035   1.418       .  A
C1035      C1036   1.413       .  A
C1035     Br1042   1.936       .  S
C1036      C1037   1.415       .  A
C1036     Br1041   1.935       .  S
C1037      C1038   1.421       .  A
C1038     Br1039   1.935       .  S
C1043      C1044   1.415       .  A
C1043      C1048   1.398       .  A
C1043     Br1050   1.943       .  S
C1044      C1045   1.418       .  A
C1045      C1046   1.419       .  A
C1045     Br1052   1.932       .  S
C1046      C1047   1.419       .  A
C1046     Br1051   1.930       .  S
C1047      C1048   1.411       .  A
C1048     Br1049   1.928       .  S
C1053      C1054   1.414       .  A
C1053      C1058   1.413       .  A
C1053     Br1060   1.926       .  S
C1054      C1055   1.406       .  A
C1055      C1056   1.412   1_556  A
C1055     Br1062   1.931   1_556  S
C1056      C1057   1.427       .  A
C1056     Br1061   1.935       .  S
C1057      C1058   1.417   1_554  A
C1058     Br1059   1.932       .  S
C1063      C1064   1.412   1_656  A
C1063      C1068   1.412   1_556  A
C1063     Br1070   1.928       .  S
C1064      C1065   1.412       .  A
C1065      C1066   1.417       .  A
C1065     Br1072   1.928       .  S
C1066      C1067   1.415   1_455  A
C1066     Br1071   1.929       .  S
C1067      C1068   1.412       .  A
C1068     Br1069   1.926       .  S
C1073      C1074   1.404       .  A
C1073      C1078   1.410       .  A
C1073     Br1080   1.941       .  S
C1074      C1075   1.408       .  A
C1075      C1076   1.421       .  A
C1075     Br1082   1.932       .  S
C1076      C1077   1.426       .  A
C1076     Br1081   1.926       .  S
C1077      C1078   1.437       .  A
C1078     Br1079   1.945       .  S
C1083      C1084   1.420       .  A
C1083      C1088   1.415       .  A
C1083     Br1090   1.933       .  S
C1084      C1085   1.413       .  A
C1085      C1086   1.414       .  A
C1085     Br1092   1.934       .  S
C1086      C1087   1.419       .  A
C1086     Br1091   1.934       .  S
C1087      C1088   1.411       .  A
C1088     Br1089   1.932       .  S
C1093      C1094   1.410       .  A
C1093      C1098   1.417       .  A
C1093     Br1100   1.932       .  S
C1094      C1095   1.406       .  A
C1095      C1096   1.403       .  A
C1095     Br1102   1.937       .  S
C1096      C1097   1.425       .  A
C1096     Br1101   1.944       .  S
C1097      C1098   1.427       .  A
C1098     Br1099   1.933       .  S
C1103      C1104   1.408       .  A
C1103      C1108   1.411       .  A
C1103     Br1110   1.914       .  S
C1104      C1105   1.410       .  A
C1105      C1106   1.407       .  A
C1105     Br1112   1.904       .  S
C1106      C1107   1.407       .  A
C1106     Br1111   1.932       .  S
C1107      C1108   1.419       .  A
C1108     Br1109   1.936       .  S
C1113      C1114   1.409       .  A
C1113      C1118   1.402       .  A
C1113     Br1120   1.940       .  S
C1114      C1115   1.415       .  A
C1115      C1116   1.419       .  A
C1115     Br1122   1.932       .  S
C1116      C1117   1.425       .  A
C1116     Br1121   1.934       .  S
C1117      C1118   1.426       .  A
C1118     Br1119   1.940       .  S
C1123      C1124   1.403       .  A
C1123      C1128   1.412   1_556  A
C1123     Br1130   1.927       .  S
C1124      C1125   1.407   1_565  A
C1125      C1126   1.413       .  A
C1125     Br1132   1.926       .  S
C1126      C1127   1.418   1_556  A
C1126     Br1131   1.929       .  S
C1127      C1128   1.426   1_545  A
C1128     Br1129   1.932       .  S
C1133      C1134   1.418       .  A
C1133      C1138   1.413   1_556  A
C1133     Br1140   1.933       .  S
C1134      C1135   1.416   1_556  A
C1135      C1136   1.412       .  A
C1135     Br1142   1.931       .  S
C1136      C1137   1.412       .  A
C1136     Br1141   1.919       .  S
C1137      C1138   1.414       .  A
C1138     Br1139   1.929       .  S
C1143      C1144   1.407       .  A
C1143      C1148   1.417       .  A
C1143     Br1150   1.931       .  S
C1144      C1145   1.397       .  A
C1145      C1146   1.408       .  A
C1145     Br1152   1.935       .  S
C1146      C1147   1.434       .  A
C1146     Br1151   1.940       .  S
C1147      C1148   1.424       .  A
C1148     Br1149   1.930       .  S
C1153      C1154   1.430       .  A
C1153      C1158   1.396       .  A
C1153     Br1160   1.943       .  S
C1154      C1155   1.425       .  A
C1155      C1156   1.415       .  A
C1155     Br1162   1.934       .  S
C1156      C1157   1.406       .  A
C1156     Br1161   1.924       .  S
C1157      C1158   1.392       .  A
C1158     Br1159   1.916       .  S
C1163      C1164   1.421       .  A
C1163      C1168   1.414       .  A
C1163     Br1170   1.934       .  S
C1164      C1165   1.413       .  A
C1165      C1166   1.415       .  A
C1165     Br1172   1.932       .  S
C1166      C1167   1.417       .  A
C1166     Br1171   1.927       .  S
C1167      C1168   1.411       .  A
C1168     Br1169   1.931       .  S
C1173      C1174   1.422       .  A
C1173      C1178   1.397       .  A
C1173     Br1180   1.939       .  S
C1174      C1175   1.428       .  A
C1175      C1176   1.419       .  A
C1175     Br1182   1.934       .  S
C1176      C1177   1.411       .  A
C1176     Br1181   1.930       .  S
C1177      C1178   1.403       .  A
C1178     Br1179   1.932       .  S
C1183      C1184   1.427       .  A
C1183      C1188   1.427       .  A
C1183     Br1190   1.923       .  S
C1184      C1185   1.436       .  A
C1185      C1186   1.415       .  A
C1185     Br1192   1.944       .  S
C1186      C1187   1.409       .  A
C1186     Br1191   1.937       .  S
C1187      C1188   1.413       .  A
C1188     Br1189   1.931       .  S
C1193      C1194   1.414       .  A
C1193      C1198   1.413       .  A
C1193     Br1200   1.933       .  S
C1194      C1195   1.408       .  A
C1195      C1196   1.414       .  A
C1195     Br1202   1.933       .  S
C1196      C1197   1.424       .  A
C1196     Br1201   1.935       .  S
C1197      C1198   1.417       .  A
C1198     Br1199   1.934       .  S
C1203      C1204   1.409       .  A
C1203      C1208   1.410       .  A
C1203     Br1210   1.926       .  S
C1204      C1205   1.415       .  A
C1205      C1206   1.417       .  A
C1205     Br1212   1.926       .  S
C1206      C1207   1.411       .  A
C1206     Br1211   1.925       .  S
C1207      C1208   1.414       .  A
C1208     Br1209   1.930       .  S
C1213      C1214   1.410       .  A
C1213      C1218   1.409       .  A
C1213     Br1220   1.928       .  S
C1214      C1215   1.419       .  A
C1215      C1216   1.411       .  A
C1215     Br1222   1.930       .  S
C1216      C1217   1.407       .  A
C1216     Br1221   1.929       .  S
C1217      C1218   1.414       .  A
C1218     Br1219   1.930       .  S
C1223      C1224   1.417       .  A
C1223      C1228   1.421   1_455  A
C1223     Br1230   1.929       .  S
C1224      C1225   1.421       .  A
C1225      C1226   1.409   1_455  A
C1225     Br1232   1.939       .  S
C1226      C1227   1.410       .  A
C1226     Br1231   1.935       .  S
C1227      C1228   1.414       .  A
C1228     Br1229   1.927       .  S
C1233      C1234   1.409       .  A
C1233      C1238   1.414       .  A
C1233     Br1240   1.932       .  S
C1234      C1235   1.411       .  A
C1235      C1236   1.411       .  A
C1235     Br1242   1.939   1_565  S
C1236      C1237   1.429       .  A
C1236     Br1241   1.937       .  S
C1237      C1238   1.424       .  A
C1238     Br1239   1.931       .  S
C1243      C1244   1.423       .  A
C1243      C1248   1.408       .  A
C1243     Br1250   1.936       .  S
C1244      C1245   1.423       .  A
C1245      C1246   1.419       .  A
C1245     Br1252   1.931       .  S
C1246      C1247   1.416       .  A
C1246     Br1251   1.934       .  S
C1247      C1248   1.414       .  A
C1248     Br1249   1.942       .  S
C1253      C1254   1.412       .  A
C1253      C1258   1.413       .  A
C1253     Br1260   1.931       .  S
C1254      C1255   1.418       .  A
C1255      C1256   1.413       .  A
C1255     Br1262   1.932       .  S
C1256      C1257   1.410       .  A
C1256     Br1261   1.933       .  S
C1257      C1258   1.415       .  A
C1258     Br1259   1.932       .  S
C1263      C1264   1.414       .  A
C1263      C1268   1.412       .  A
C1263     Br1270   1.925       .  S
C1264      C1265   1.417       .  A
C1265      C1266   1.417       .  A
C1265     Br1272   1.927       .  S
C1266      C1267   1.409       .  A
C1266     Br1271   1.925       .  S
C1267      C1268   1.410       .  A
C1268     Br1269   1.928       .  S
C1273      C1274   1.414       .  A
C1273      C1278   1.412       .  A
C1273     Br1280   1.928       .  S
C1274      C1275   1.408       .  A
C1275      C1276   1.412       .  A
C1275     Br1282   1.931       .  S
C1276      C1277   1.424       .  A
C1276     Br1281   1.935       .  S
C1277      C1278   1.420       .  A
C1278     Br1279   1.935       .  S
C1283      C1284   1.409       .  A
C1283      C1288   1.406   1_565  A
C1283     Br1290   1.935       .  S
C1284      C1285   1.414   1_565  A
C1285      C1286   1.424       .  A
C1285     Br1292   1.928   1_545  S
C1286      C1287   1.419       .  A
C1286     Br1291   1.928       .  S
C1287      C1288   1.418       .  A
C1288     Br1289   1.938       .  S
C1293      C1294   1.398       .  A
C1293      C1298   1.404       .  A
C1293     Br1300   1.927       .  S
C1294      C1295   1.407       .  A
C1295      C1296   1.402       .  A
C1295     Br1302   1.917   1_565  S
C1296      C1297   1.404       .  A
C1296     Br1301   1.924       .  S
C1297      C1298   1.419       .  A
C1298     Br1299   1.927       .  S
C1303      C1304   1.412       .  A
C1303      C1308   1.393       .  A
C1303     Br1310   1.932       .  S
C1304      C1305   1.420       .  A
C1305      C1306   1.416       .  A
C1305     Br1312   1.931       .  S
C1306      C1307   1.414       .  A
C1306     Br1311   1.929       .  S
C1307      C1308   1.404       .  A
C1308     Br1309   1.931       .  S
C1313      C1314   1.430       .  A
C1313      C1318   1.406       .  A
C1313     Br1320   1.933       .  S
C1314      C1315   1.419       .  A
C1315      C1316   1.404       .  A
C1315     Br1322   1.934       .  S
C1316      C1317   1.405       .  A
C1316     Br1321   1.918       .  S
C1317      C1318   1.402       .  A
C1318     Br1319   1.932       .  S
C1323      C1324   1.408       .  A
C1323      C1328   1.412       .  A
C1323     Br1330   1.926       .  S
C1324      C1325   1.402       .  A
C1325      C1326   1.402       .  A
C1325     Br1332   1.929       .  S
C1326      C1327   1.421       .  A
C1326     Br1331   1.928       .  S
C1327      C1328   1.421       .  A
C1328     Br1329   1.932       .  S
C1333      C1334   1.420       .  A
C1333      C1338   1.410       .  A
C1333     Br1340   1.936       .  S
C1334      C1335   1.415       .  A
C1335      C1336   1.410       .  A
C1335     Br1342   1.933       .  S
C1336      C1337   1.412       .  A
C1336     Br1341   1.933       .  S
C1337      C1338   1.406       .  A
C1338     Br1339   1.932       .  S
C1343      C1344   1.426       .  A
C1343      C1348   1.411       .  A
C1343     Br1350   1.936       .  S
C1344      C1345   1.414       .  A
C1345      C1346   1.416       .  A
C1345     Br1352   1.929       .  S
C1346      C1347   1.416       .  A
C1346     Br1351   1.928       .  S
C1347      C1348   1.408       .  A
C1348     Br1349   1.932       .  S
C1353      C1354   1.408       .  A
C1353      C1358   1.411       .  A
C1353     Br1360   1.926       .  S
C1354      C1355   1.412       .  A
C1355      C1356   1.410       .  A
C1355     Br1362   1.927       .  S
C1356      C1357   1.410       .  A
C1356     Br1361   1.926       .  S
C1357      C1358   1.415       .  A
C1358     Br1359   1.930       .  S
C1363      C1364   1.417       .  A
C1363      C1368   1.421       .  A
C1363     Br1370   1.925       .  S
C1364      C1365   1.418       .  A
C1365      C1366   1.404       .  A
C1365     Br1372   1.939       .  S
C1366      C1367   1.409       .  A
C1366     Br1371   1.934       .  S
C1367      C1368   1.414       .  A
C1368     Br1369   1.927       .  S
C1373      C1374   1.415       .  A
C1373      C1378   1.411       .  A
C1373     Br1380   1.928       .  S
C1374      C1375   1.412       .  A
C1375      C1376   1.410       .  A
C1375     Br1382   1.918       .  S
C1376      C1377   1.410       .  A
C1376     Br1381   1.927       .  S
C1377      C1378   1.413       .  A
C1378     Br1379   1.931       .  S
C1383      C1384   1.406       .  A
C1383      C1388   1.408       .  A
C1383     Br1390   1.930       .  S
C1384      C1385   1.415       .  A
C1385      C1386   1.413       .  A
C1385     Br1392   1.930       .  S
C1386      C1387   1.414       .  A
C1386     Br1391   1.931       .  S
C1387      C1388   1.422       .  A
C1388     Br1389   1.933       .  S
C1393      C1394   1.415       .  A
C1393      C1398   1.410   1_455  A
C1393     Br1400   1.931       .  S
C1394      C1395   1.410   1_455  A
C1395      C1396   1.412       .  A
C1395     Br1402   1.929   1_655  S
C1396      C1397   1.414       .  A
C1396     Br1401   1.932       .  S
C1397      C1398   1.407       .  A
C1398     Br1399   1.930       .  S
C1403      C1404   1.419       .  A
C1403      C1408   1.414       .  A
C1403     Br1410   1.928       .  S
C1404      C1405   1.413       .  A
C1405      C1406   1.413       .  A
C1405     Br1412   1.927       .  S
C1406      C1407   1.414       .  A
C1406     Br1411   1.931       .  S
C1407      C1408   1.409       .  A
C1408     Br1409   1.930       .  S
C1413      C1414   1.412       .  A
C1413      C1418   1.412       .  A
C1413     Br1420   1.930       .  S
C1414      C1415   1.417       .  A
C1415      C1416   1.412       .  A
C1415     Br1422   1.925       .  S
C1416      C1417   1.408       .  A
C1416     Br1421   1.927       .  S
C1417      C1418   1.414       .  A
C1418     Br1419   1.928       .  S
C1423      C1424   1.412       .  A
C1423      C1428   1.423       .  A
C1423     Br1430   1.926       .  S
C1424      C1425   1.399       .  A
C1425      C1426   1.406       .  A
C1425     Br1432   1.931       .  S
C1426      C1427   1.434       .  A
C1426     Br1431   1.942       .  S
C1427      C1428   1.423       .  A
C1428     Br1429   1.928       .  S
C1433      C1434   1.420       .  A
C1433      C1438   1.408       .  A
C1433     Br1440   1.926       .  S
C1434      C1435   1.410       .  A
C1435      C1436   1.405       .  A
C1435     Br1442   1.936       .  S
C1436      C1437   1.409       .  A
C1436     Br1441   1.913       .  S
C1437      C1438   1.405       .  A
C1438     Br1439   1.935       .  S
C1443      C1444   1.413       .  A
C1443      C1448   1.411       .  A
C1443     Br1450   1.929       .  S
C1444      C1445   1.409       .  A
C1445      C1446   1.412       .  A
C1445     Br1452   1.924       .  S
C1446      C1447   1.414       .  A
C1446     Br1451   1.930       .  S
C1447      C1448   1.410       .  A
C1448     Br1449   1.927       .  S
C1453      C1454   1.418       .  A
C1453      C1458   1.415       .  A
C1453     Br1460   1.932       .  S
C1454      C1455   1.426       .  A
C1455      C1456   1.406       .  A
C1455     Br1462   1.937       .  S
C1456      C1457   1.406       .  A
C1456     Br1461   1.931       .  S
C1457      C1458   1.413       .  A
C1458     Br1459   1.930       .  S
C1463      C1464   1.408       .  A
C1463      C1468   1.409       .  A
C1463     Br1470   1.921       .  S
C1464      C1465   1.406       .  A
C1465      C1466   1.407       .  A
C1465     Br1472   1.930       .  S
C1466      C1467   1.409       .  A
C1466     Br1471   1.920       .  S
C1467      C1468   1.408       .  A
C1468     Br1469   1.924       .  S
C1473      C1474   1.419       .  A
C1473      C1478   1.405       .  A
C1473     Br1480   1.910       .  S
C1474      C1475   1.410       .  A
C1475      C1476   1.409       .  A
C1475     Br1482   1.926       .  S
C1476      C1477   1.407       .  A
C1476     Br1481   1.916       .  S
C1477      C1478   1.398       .  A
C1478     Br1479   1.931       .  S
C1483      C1484   1.416       .  A
C1483      C1488   1.408       .  A
C1483     Br1490   1.933       .  S
C1484      C1485   1.407       .  A
C1485      C1486   1.409       .  A
C1485     Br1492   1.930       .  S
C1486      C1487   1.421       .  A
C1486     Br1491   1.932       .  S
C1487      C1488   1.413       .  A
C1488     Br1489   1.927       .  S
C1493      C1494   1.413       .  A
C1493      C1498   1.415       .  A
C1493     Br1500   1.929       .  S
C1494      C1495   1.417       .  A
C1495      C1496   1.412       .  A
C1495     Br1502   1.924       .  S
C1496      C1497   1.409       .  A
C1496     Br1501   1.931       .  S
C1497      C1498   1.412       .  A
C1498     Br1499   1.923       .  S
C1503      C1504   1.407       .  A
C1503      C1508   1.404       .  A
C1503     Br1510   1.919       .  S
C1504      C1505   1.400       .  A
C1505      C1506   1.401       .  A
C1505     Br1512   1.935       .  S
C1506      C1507   1.425       .  A
C1506     Br1511   1.932       .  S
C1507      C1508   1.412       .  A
C1508     Br1509   1.931       .  S
C1513      C1514   1.422       .  A
C1513      C1518   1.417       .  A
C1513     Br1520   1.930       .  S
C1514      C1515   1.416       .  A
C1515      C1516   1.392       .  A
C1515     Br1522   1.942       .  S
C1516      C1517   1.406       .  A
C1516     Br1521   1.935       .  S
C1517      C1518   1.412       .  A
C1518     Br1519   1.932       .  S
C1523      C1524   1.410       .  A
C1523      C1528   1.409       .  A
C1523     Br1530   1.928       .  S
C1524      C1525   1.417       .  A
C1525      C1526   1.412       .  A
C1525     Br1532   1.932       .  S
C1526      C1527   1.410       .  A
C1526     Br1531   1.928       .  S
C1527      C1528   1.412       .  A
C1528     Br1529   1.928       .  S
C1533      C1534   1.413       .  A
C1533      C1538   1.410       .  A
C1533     Br1540   1.926       .  S
C1534      C1535   1.417       .  A
C1535      C1536   1.415       .  A
C1535     Br1542   1.927       .  S
C1536      C1537   1.410       .  A
C1536     Br1541   1.926       .  S
C1537      C1538   1.408       .  A
C1538     Br1539   1.919       .  S
C1543      C1544   1.424       .  A
C1543      C1548   1.407       .  A
C1543     Br1550   1.941       .  S
C1544      C1545   1.415       .  A
C1545      C1546   1.417       .  A
C1545     Br1552   1.926       .  S
C1546      C1547   1.411       .  A
C1546     Br1551   1.928       .  S
C1547      C1548   1.408       .  A
C1548     Br1549   1.936       .  S
C1553      C1554   1.398       .  A
C1553      C1558   1.403       .  A
C1553     Br1560   1.926       .  S
C1554      C1555   1.411       .  A
C1555      C1556   1.404       .  A
C1555     Br1562   1.922       .  S
C1556      C1557   1.406       .  A
C1556     Br1561   1.932       .  S
C1557      C1558   1.420       .  A
C1558     Br1559   1.925       .  S
C1563      C1564   1.423       .  A
C1563      C1568   1.415       .  A
C1563     Br1570   1.935       .  S
C1564      C1565   1.425       .  A
C1565      C1566   1.406       .  A
C1565     Br1572   1.939       .  S
C1566      C1567   1.410       .  A
C1566     Br1571   1.938       .  S
C1567      C1568   1.410       .  A
C1568     Br1569   1.930       .  S
C1573      C1574   1.412       .  A
C1573      C1578   1.413   1_565  A
C1573     Br1580   1.931       .  S
C1574      C1575   1.422       .  A
C1575      C1576   1.412   1_565  A
C1575     Br1582   1.931       .  S
C1576      C1577   1.407       .  A
C1576     Br1581   1.932       .  S
C1577      C1578   1.414       .  A
C1578     Br1579   1.933       .  S
C1583      C1584   1.415       .  A
C1583      C1588   1.415       .  A
C1583     Br1590   1.928       .  S
C1584      C1585   1.410       .  A
C1585      C1586   1.414       .  A
C1585     Br1592   1.928       .  S
C1586      C1587   1.417       .  A
C1586     Br1591   1.929       .  S
C1587      C1588   1.413       .  A
C1588     Br1589   1.928       .  S
C1593      C1594   1.408       .  A
C1593      C1598   1.411       .  A
C1593     Br1600   1.930       .  S
C1594      C1595   1.415       .  A
C1595      C1596   1.409       .  A
C1595     Br1602   1.930       .  S
C1596      C1597   1.411       .  A
C1596     Br1601   1.931       .  S
C1597      C1598   1.415       .  A
C1598     Br1599   1.921       .  S
C1603      C1604   1.435       .  A
C1603      C1608   1.409       .  A
C1603     Br1610   1.940       .  S
C1604      C1605   1.419       .  A
C1605      C1606   1.414       .  A
C1605     Br1612   1.924       .  S
C1606      C1607   1.406       .  A
C1606     Br1611   1.932       .  S
C1607      C1608   1.398       .  A
C1608     Br1609   1.934       .  S
C1613      C1614   1.410       .  A
C1613      C1618   1.413       .  A
C1613     Br1620   1.928       .  S
C1614      C1615   1.414   1_655  A
C1615      C1616   1.413       .  A
C1615     Br1622   1.927       .  S
C1616      C1617   1.411       .  A
C1616     Br1621   1.928       .  S
C1617      C1618   1.416   1_455  A
C1618     Br1619   1.925       .  S
C1623      C1624   1.419       .  A
C1623      C1628   1.411       .  A
C1623     Br1630   1.930       .  S
C1624      C1625   1.418       .  A
C1625      C1626   1.414       .  A
C1625     Br1632   1.931       .  S
C1626      C1627   1.411       .  A
C1626     Br1631   1.930       .  S
C1627      C1628   1.410       .  A
C1628     Br1629   1.931       .  S
C1633      C1634   1.415       .  A
C1633      C1638   1.401       .  A
C1633     Br1640   1.934       .  S
C1634      C1635   1.417       .  A
C1635      C1636   1.422       .  A
C1635     Br1642   1.930       .  S
C1636      C1637   1.416       .  A
C1636     Br1641   1.930       .  S
C1637      C1638   1.402       .  A
C1638     Br1639   1.928       .  S
C1643      C1644   1.412       .  A
C1643      C1648   1.410       .  A
C1643     Br1650   1.938       .  S
C1644      C1645   1.420       .  A
C1645      C1646   1.413       .  A
C1645     Br1652   1.938       .  S
C1646      C1647   1.416       .  A
C1646     Br1651   1.934       .  S
C1647      C1648   1.423       .  A
C1648     Br1649   1.935       .  S
C1653      C1654   1.397       .  A
C1653      C1658   1.382       .  A
C1653     Br1660   1.922       .  S
C1654      C1655   1.413       .  A
C1655      C1656   1.423       .  A
C1655     Br1662   1.922       .  S
C1656      C1657   1.414       .  A
C1656     Br1661   1.918       .  S
C1657      C1658   1.411       .  A
C1658     Br1659   1.936       .  S
C1663      C1664   1.408       .  A
C1663      C1668   1.411       .  A
C1663     Br1670   1.929       .  S
C1664      C1665   1.409       .  A
C1665      C1666   1.410       .  A
C1665     Br1672   1.926       .  S
C1666      C1667   1.412       .  A
C1666     Br1671   1.924       .  S
C1667      C1668   1.414       .  A
C1668     Br1669   1.920       .  S
C1673      C1674   1.421       .  A
C1673      C1678   1.422       .  A
C1673     Br1680   1.930       .  S
C1674      C1675   1.434       .  A
C1675      C1676   1.415   1_655  A
C1675     Br1682   1.940       .  S
C1676      C1677   1.407       .  A
C1676     Br1681   1.938       .  S
C1677      C1678   1.412   1_455  A
C1678     Br1679   1.924       .  S
C1683      C1684   1.424       .  A
C1683      C1688   1.415       .  A
C1683     Br1690   1.930       .  S
C1684      C1685   1.429       .  A
C1685      C1686   1.402       .  A
C1685     Br1692   1.937       .  S
C1686      C1687   1.398       .  A
C1686     Br1691   1.933       .  S
C1687      C1688   1.406       .  A
C1688     Br1689   1.928       .  S
C1693      C1694   1.411       .  A
C1693      C1698   1.412       .  A
C1693     Br1700   1.927       .  S
C1694      C1695   1.417   1_565  A
C1695      C1696   1.411       .  A
C1695     Br1702   1.929       .  S
C1696      C1697   1.408       .  A
C1696     Br1701   1.925       .  S
C1697      C1698   1.413   1_545  A
C1698     Br1699   1.927       .  S
C1703      C1704   1.415   1_655  A
C1703      C1708   1.413       .  A
C1703     Br1710   1.927       .  S
C1704      C1705   1.414       .  A
C1705      C1706   1.414       .  A
C1705     Br1712   1.923       .  S
C1706      C1707   1.408   1_455  A
C1706     Br1711   1.925       .  S
C1707      C1708   1.409       .  A
C1708     Br1709   1.927       .  S
C1713      C1714   1.416       .  A
C1713      C1718   1.418       .  A
C1713     Br1720   1.930       .  S
C1714      C1715   1.427       .  A
C1715      C1716   1.403       .  A
C1715     Br1722   1.944       .  S
C1716      C1717   1.403       .  A
C1716     Br1721   1.934       .  S
C1717      C1718   1.413       .  A
C1718     Br1719   1.925       .  S
C1723      C1724   1.403       .  A
C1723      C1728   1.394       .  A
C1723     Br1730   1.938       .  S
C1724      C1725   1.414       .  A
C1725      C1726   1.417       .  A
C1725     Br1732   1.926       .  S
C1726      C1727   1.418       .  A
C1726     Br1731   1.930       .  S
C1727      C1728   1.418       .  A
C1728     Br1729   1.933       .  S
C1733      C1734   1.418       .  A
C1733      C1738   1.414       .  A
C1733     Br1740   1.934       .  S
C1734      C1735   1.410       .  A
C1735      C1736   1.414       .  A
C1735     Br1742   1.932       .  S
C1736      C1737   1.423       .  A
C1736     Br1741   1.936       .  S
C1737      C1738   1.413       .  A
C1738     Br1739   1.933       .  S
C1743      C1744   1.405       .  A
C1743      C1748   1.409       .  A
C1743     Br1750   1.927       .  S
C1744      C1745   1.413       .  A
C1745      C1746   1.408       .  A
C1745     Br1752   1.925       .  S
C1746      C1747   1.410       .  A
C1746     Br1751   1.930       .  S
C1747      C1748   1.418       .  A
C1748     Br1749   1.929       .  S
C1753      C1754   1.408       .  A
C1753      C1758   1.412       .  A
C1753     Br1760   1.928       .  S
C1754      C1755   1.411       .  A
C1755      C1756   1.411       .  A
C1755     Br1762   1.927       .  S
C1756      C1757   1.411       .  A
C1756     Br1761   1.929       .  S
C1757      C1758   1.415       .  A
C1758     Br1759   1.928       .  S
C1763      C1764   1.411       .  A
C1763      C1768   1.427   1_565  A
C1763     Br1770   1.929       .  S
C1764      C1765   1.402       .  A
C1765      C1766   1.420       .  A
C1765     Br1772   1.931       .  S
C1766      C1767   1.439   1_565  A
C1766     Br1771   1.939       .  S
C1767      C1768   1.426       .  A
C1768     Br1769   1.923       .  S
C1773      C1774   1.407       .  A
C1773      C1778   1.390       .  A
C1773     Br1780   1.936       .  S
C1774      C1775   1.412       .  A
C1775      C1776   1.413       .  A
C1775     Br1782   1.928       .  S
C1776      C1777   1.419       .  A
C1776     Br1781   1.931       .  S
C1777      C1778   1.410       .  A
C1778     Br1779   1.935   1_655  S
C1783      C1784   1.396       .  A
C1783      C1788   1.405       .  A
C1783     Br1790   1.938       .  S
C1784      C1785   1.407       .  A
C1785      C1786   1.413       .  A
C1785     Br1792   1.929       .  S
C1786      C1787   1.421       .  A
C1786     Br1791   1.931       .  S
C1787      C1788   1.430       .  A
C1788     Br1789   1.923   1_655  S
C1793      C1794   1.411       .  A
C1793      C1798   1.414       .  A
C1793     Br1800   1.929       .  S
C1794      C1795   1.412   1_565  A
C1795      C1796   1.412       .  A
C1795     Br1802   1.927       .  S
C1796      C1797   1.411       .  A
C1796     Br1801   1.927       .  S
C1797      C1798   1.415   1_545  A
C1798     Br1799   1.924       .  S
C1803      C1804   1.417       .  A
C1803      C1808   1.428       .  A
C1803     Br1810   1.919       .  S
C1804      C1805   1.414       .  A
C1805      C1806   1.390       .  A
C1805     Br1812   1.923       .  S
C1806      C1807   1.409       .  A
C1806     Br1811   1.938       .  S
C1807      C1808   1.417       .  A
C1808     Br1809   1.924       .  S
C1813      C1814   1.412       .  A
C1813      C1818   1.421       .  A
C1813     Br1820   1.924       .  S
C1814      C1815   1.404       .  A
C1815      C1816   1.421       .  A
C1815     Br1822   1.932       .  S
C1816      C1817   1.437       .  A
C1816     Br1821   1.936       .  S
C1817      C1818   1.419       .  A
C1818     Br1819   1.928       .  S
C1823      C1824   1.421       .  A
C1823      C1828   1.413       .  A
C1823     Br1830   1.933       .  S
C1824      C1825   1.417       .  A
C1825      C1826   1.418       .  A
C1825     Br1832   1.934       .  S
C1826      C1827   1.422       .  A
C1826     Br1831   1.934       .  S
C1827      C1828   1.415       .  A
C1828     Br1829   1.937       .  S
C1833      C1834   1.420       .  A
C1833      C1838   1.411       .  A
C1833     Br1840   1.923       .  S
C1834      C1835   1.414       .  A
C1835      C1836   1.417       .  A
C1835     Br1842   1.929       .  S
C1836      C1837   1.414       .  A
C1836     Br1841   1.923       .  S
C1837      C1838   1.404       .  A
C1838     Br1839   1.928       .  S
C1843      C1844   1.420       .  A
C1843      C1848   1.416       .  A
C1843     Br1850   1.934       .  S
C1844      C1845   1.430       .  A
C1845      C1846   1.395       .  A
C1845     Br1852   1.952       .  S
C1846      C1847   1.403       .  A
C1846     Br1851   1.939       .  S
C1847      C1848   1.413       .  A
C1848     Br1849   1.930       .  S
C1853      C1854   1.410       .  A
C1853      C1858   1.389       .  A
C1853     Br1860   1.933       .  S
C1854      C1855   1.419       .  A
C1855      C1856   1.427       .  A
C1855     Br1862   1.925       .  S
C1856      C1857   1.414       .  A
C1856     Br1861   1.919       .  S
C1857      C1858   1.414       .  A
C1858     Br1859   1.935       .  S
C1863      C1864   1.409       .  A
C1863      C1868   1.410       .  A
C1863     Br1870   1.924       .  S
C1864      C1865   1.407       .  A
C1865      C1866   1.416       .  A
C1865     Br1872   1.926       .  S
C1866      C1867   1.413       .  A
C1866     Br1871   1.924       .  S
C1867      C1868   1.410       .  A
C1868     Br1869   1.926       .  S
