geometry optimzed in LAMMPS
_audit_creation_date              2020-11-30 
_audit_creation_method            'lammps2cif' 
_symmetry_space_group_name_H-M    'P1' 
_symmetry_Int_Tables_number       1 
_symmetry_cell_setting            triclinic 
loop_ 
_symmetry_equiv_pos_as_xyz 
  x,y,z 
_cell_length_a                    68.81295392959726 
_cell_length_b                    68.41691108895533 
_cell_length_c                    33.677756106057174 
_cell_angle_alpha                 90.04952113574501 
_cell_angle_beta                  90.60990573652239 
_cell_angle_gamma                 90.2475811229211 
loop_ 
_atom_site_label 
_atom_site_type_symbol 
_atom_site_fract_x 
_atom_site_fract_y 
_atom_site_fract_z 
_atom_site_charge 
Zn1        Zn  0.29542749  0.20173501  0.14232133     1.49720
Zn2        Zn  0.30543124  0.16086389  0.11252604     1.49360
Zn3        Zn  0.30343416  0.19535197  0.05226630     1.49110
Zn4        Zn  0.33739433  0.19751129  0.11743094     1.49480
O5          O  0.31124019  0.18837927  0.10541426    -1.84680
O6          O  0.28710264  0.18537503  0.18740792    -0.75310
O7          O  0.28902698  0.14946769  0.06678424    -0.75130
O8          O  0.28245483  0.21488065  0.05524212    -0.74650
O9          O  0.28580138  0.15708667  0.15543322    -0.75330
O10         O  0.27119041  0.20843369  0.11530873    -0.74930
O11         O  0.28907481  0.17384968  0.02317678    -0.75510
O12         O  0.34764869  0.21291404  0.06963261    -0.74900
O13         O  0.33075684  0.14834439  0.13067109    -0.75660
O14         O  0.32470093  0.20883343  0.02293500    -0.75050
O15         O  0.35211050  0.17323640  0.13583849    -0.75510
O16         O  0.33848972  0.21879688  0.16088515    -0.75420
O17         O  0.30735468  0.22663453  0.16247767    -0.75210
C18         C  0.28046912  0.16816579  0.18337905     0.76580
C19         C  0.28263625  0.15740129  0.03499132     0.77070
C20         C  0.26922832  0.21585114  0.08108929     0.76030
C21         C  0.34045143  0.21670014  0.03534329     0.76400
C22         C  0.34751098  0.15519003  0.14071589     0.77540
C23         C  0.32498928  0.23046084  0.17102942     0.76590
Zn24       Zn  0.17956810  0.18718300  0.31589828     1.49720
Zn25       Zn  0.21559901  0.18720005  0.37308135     1.49360
Zn26       Zn  0.18393337  0.21697733  0.38008049     1.49110
Zn27       Zn  0.17633571  0.17653947  0.41428204     1.49480
O28         O  0.18879094  0.19037522  0.36985663    -1.84680
O29         O  0.20131616  0.17555368  0.28130469    -0.75310
O30         O  0.22830208  0.21093082  0.39297138    -0.75130
O31         O  0.18259560  0.23428769  0.33377669    -0.74650
O32         O  0.22618743  0.17872196  0.32333555    -0.75330
O33         O  0.16955484  0.21325746  0.29130649    -0.74930
O34         O  0.20390577  0.22827812  0.41700247    -0.75510
O35         O  0.16471631  0.19857526  0.45144814    -0.74900
O36         O  0.22348124  0.16748153  0.41071926    -0.75660
O37         O  0.15781151  0.21772570  0.40133984    -0.75050
O38         O  0.19786380  0.16101231  0.44780872    -0.75510
O39         O  0.15563902  0.15889016  0.38500052    -0.75420
O40         O  0.15794094  0.16802366  0.32088638    -0.75210
C41         C  0.21937242  0.17366269  0.28983251     0.76580
C42         C  0.22200640  0.22516439  0.41327661     0.77070
C43         C  0.17343935  0.23086009  0.30173790     0.76030
C44         C  0.15800910  0.21478777  0.43819377     0.76400
C45         C  0.21608920  0.15924690  0.44051863     0.77540
C46         C  0.15024201  0.15778929  0.34825324     0.76590
Zn47       Zn  0.31694310  0.28963356  0.36677964     1.49720
Zn48       Zn  0.32125174  0.32282820  0.42381301     1.49360
Zn49       Zn  0.32081814  0.33149738  0.32484629     1.49110
Zn50       Zn  0.28605251  0.32183062  0.37498555     1.49480
O51         O  0.31265294  0.31671792  0.37061062    -1.84680
O52         O  0.33879393  0.28014899  0.40020959    -0.75310
O53         O  0.34082540  0.34345549  0.41542943    -0.75130
O54         O  0.33108685  0.31101566  0.28342687    -0.74650
O55         O  0.33288888  0.29860910  0.45252753    -0.75330
O56         O  0.32267413  0.28266068  0.31168169    -0.74930
O57         O  0.34114173  0.35139162  0.35038540    -0.75510
O58         O  0.27294792  0.32668133  0.32472987    -0.74900
O59         O  0.29876188  0.33409207  0.45632765    -0.75660
O60         O  0.29616147  0.34399179  0.29581048    -0.75050
O61         O  0.28170510  0.34552800  0.40590638    -0.75510
O62         O  0.27339077  0.29985431  0.40229500    -0.75420
O63         O  0.29383365  0.27579446  0.38839758    -0.75210
C64         C  0.33982997  0.28299442  0.43739608     0.76580
C65         C  0.34712062  0.35368668  0.38664548     0.77070
C66         C  0.32906098  0.29231331  0.28233570     0.76030
C67         C  0.27830312  0.33843590  0.29793820     0.76400
C68         C  0.28431858  0.34381648  0.44287515     0.77540
C69         C  0.27814779  0.28196022  0.40366313     0.76590
Zn70       Zn  0.17442269  0.28959812  0.10884019     1.49720
Zn71       Zn  0.21257157  0.31427380  0.11294163     1.49360
Zn72       Zn  0.18037735  0.32141033  0.05373614     1.49110
Zn73       Zn  0.17581586  0.33072193  0.15161572     1.49480
O74         O  0.18548180  0.31513649  0.10829923    -1.84680
O75         O  0.19443286  0.27048902  0.09512848    -0.75310
O76         O  0.22506338  0.33229978  0.07660981    -0.75130
O77         O  0.17152499  0.29681991  0.02258063    -0.74650
O78         O  0.22152536  0.28833335  0.09767742    -0.75330
O79         O  0.15350325  0.28450736  0.07010265    -0.74930
O80         O  0.20372457  0.33465339  0.02735906    -0.75510
O81         O  0.15612512  0.34947299  0.12138510    -0.74900
O82         O  0.22249273  0.32250903  0.16471521    -0.75660
O83         O  0.15924347  0.34022653  0.05749822    -0.75050
O84         O  0.19979537  0.34401105  0.18144183    -0.75510
O85         O  0.16437481  0.31102027  0.19391575    -0.75420
O86         O  0.16540528  0.28302590  0.16040166    -0.75210
C87         C  0.21260056  0.27239533  0.09093252     0.76580
C88         C  0.22054079  0.33815427  0.04217277     0.77070
C89         C  0.15963574  0.28380694  0.03486656     0.76030
C90         C  0.15130418  0.35058203  0.08418988     0.76400
C91         C  0.21703501  0.33696389  0.18531499     0.77540
C92         C  0.16231558  0.29234866  0.19204817     0.76590
Zn93       Zn  0.56956421  0.93336166  0.30395857     1.49720
Zn94       Zn  0.57412323  0.96720626  0.24866392     1.49360
Zn95       Zn  0.57771974  0.92755494  0.20439811     1.49110
Zn96       Zn  0.53742949  0.93807940  0.24327214     1.49480
O97         O  0.56485616  0.94061377  0.24881677    -1.84680
O98         O  0.57815438  0.95678956  0.33819111    -0.75310
O99         O  0.58579628  0.97579319  0.19953083    -0.75130
O100        O  0.59684376  0.90871854  0.23458524    -0.74650
O101        O  0.59235456  0.97426602  0.29176185    -0.75330
O102        O  0.59088497  0.91475774  0.29919080    -0.74930
O103        O  0.59005516  0.94858711  0.16519860    -0.75510
O104        O  0.52982792  0.92635860  0.19276524    -0.74900
O105        O  0.55178076  0.98430257  0.25431067    -0.75660
O106        O  0.55687676  0.91381522  0.16786229    -0.75050
O107        O  0.52645135  0.96407413  0.24720910    -0.75510
O108        O  0.52424516  0.92243122  0.28451977    -0.75420
O109        O  0.54640388  0.92012449  0.33201348    -0.75210
C110        C  0.58813351  0.97165161  0.32783759     0.76580
C111        C  0.59103175  0.96729104  0.16821120     0.77070
C112        C  0.60014676  0.90593938  0.27200912     0.76030
C113        C  0.53845276  0.91655849  0.16643233     0.76400
C114        C  0.53369692  0.98095346  0.25243238     0.77540
C115        C  0.52913668  0.91709351  0.31919496     0.76590
Zn116      Zn  0.55514241  0.09728360  0.50431138     1.49720
Zn117      Zn  0.55170707  0.06394262  0.44727251     1.49360
Zn118      Zn  0.58857944  0.06242546  0.50336345     1.49110
Zn119      Zn  0.54901260  0.05672023  0.04221987     1.49480
O120        O  0.56153407  0.07006953  0.50053932    -1.84680
O121        O  0.53276836  0.10303348  0.46563130    -0.75310
O122        O  0.56895189  0.04552458  0.41832815    -0.75130
O123        O  0.60322180  0.08753135  0.48870520    -0.74650
O124        O  0.54313313  0.08683594  0.41353587    -0.75330
O125        O  0.58017380  0.11081857  0.48700608    -0.74930
O126        O  0.59365667  0.04225170  0.46077683    -0.75510
O127        O  0.56548461  0.03453148  0.06238293    -0.74900
O128        O  0.52702276  0.04989421  0.45426835    -0.75660
O129        O  0.59556603  0.04543030  0.05306374    -0.75050
O130        O  0.52510439  0.04575136  0.01961569    -0.75510
O131        O  0.53948684  0.07469953  0.08498304    -0.75420
O132        O  0.54256724  0.10416740  0.05752307    -0.75210
C133        C  0.53086466  0.09822463  0.42930625     0.76580
C134        C  0.58461370  0.03725018  0.42925582     0.77070
C135        C  0.59759686  0.10499781  0.48050146     0.76030
C136        C  0.58378337  0.03249355  0.06653505     0.76400
C137        C  0.51810232  0.04399894  0.48477801     0.77540
C138        C  0.53610458  0.09299335  0.08484433     0.76590
Zn139      Zn  0.44418088  0.91329853  0.99888105     1.49720
Zn140      Zn  0.44513093  0.95040084  0.44284560     1.49360
Zn141      Zn  0.41027982  0.94842326  0.99845596     1.49110
Zn142      Zn  0.45005211  0.95357065  0.03744296     1.49480
O143        O  0.43721089  0.94076533  0.99363055    -1.84680
O144        O  0.45809616  0.90322178  0.44875442    -0.75310
O145        O  0.42374996  0.95928294  0.40609968    -0.75130
O146        O  0.39643453  0.92369842  0.01656998    -0.74650
O147        O  0.46254271  0.93145932  0.41698526    -0.75330
O148        O  0.41936850  0.90032539  0.01761153    -0.74930
O149        O  0.40054156  0.96445194  0.44997243    -0.75510
O150        O  0.43224850  0.96130643  0.08172117    -0.74900
O151        O  0.45953002  0.97493599  0.45153012    -0.75660
O152        O  0.40729292  0.96827296  0.04238012    -0.75050
O153        O  0.45960967  0.97847079  0.01713822    -0.75510
O154        O  0.47315154  0.93878432  0.05817811    -0.75420
O155        O  0.46547493  0.90845441  0.04086528    -0.75210
C156        C  0.46620706  0.91341586  0.42166420     0.76580
C157        C  0.40811263  0.96772714  0.41610291     0.77070
C158        C  0.40215719  0.90635020  0.02515544     0.76030
C159        C  0.41666337  0.97067231  0.07472873     0.76400
C160        C  0.46310470  0.98486820  0.48259582     0.77540
C161        C  0.47666107  0.92057069  0.05863079     0.76590
Zn162      Zn  0.40857756  0.06185348  0.24897981     1.49720
Zn163      Zn  0.44302011  0.09717592  0.25292837     1.49360
Zn164      Zn  0.44537711  0.05844891  0.30181401     1.49110
Zn165      Zn  0.44858860  0.06034477  0.20473534     1.49480
O166        O  0.43595750  0.06956576  0.25291069    -1.84680
O167        O  0.39493206  0.08712641  0.23419861    -0.75310
O168        O  0.45647074  0.10567279  0.30504800    -0.75130
O169        O  0.42672740  0.04023968  0.32829920    -0.74650
O170        O  0.41794278  0.11068160  0.23478033    -0.75330
O171        O  0.39873131  0.04513612  0.29657887    -0.74930
O172        O  0.45764403  0.07778879  0.33892634    -0.75510
O173        O  0.47094035  0.04502746  0.22236471    -0.74900
O174        O  0.46543645  0.10275819  0.21443415    -0.75660
O175        O  0.46699309  0.04194188  0.28764875    -0.75050
O176        O  0.46047114  0.08024557  0.16852493    -0.75510
O177        O  0.43238296  0.04184687  0.17327630    -0.75420
O178        O  0.40415324  0.04207325  0.20442803    -0.75210
C179        C  0.40049517  0.10475849  0.22750672     0.76580
C180        C  0.46251083  0.09559921  0.33461111     0.77070
C181        C  0.40888919  0.03612919  0.32278578     0.76030
C182        C  0.47600283  0.03830869  0.25594087     0.76400
C183        C  0.46988429  0.09491713  0.18152024     0.77540
C184        C  0.41522968  0.03544978  0.17764260     0.76590
Zn185      Zn  0.90762988  0.94624972  0.24018054     1.49720
Zn186      Zn  0.94445368  0.94657370  0.18782955     1.49360
Zn187      Zn  0.94601407  0.95114850  0.28547475     1.49110
Zn188      Zn  0.94226434  0.91161993  0.24175935     1.49480
O189        O  0.93482815  0.93885195  0.24024981    -1.84680
O190        O  0.90271222  0.96746234  0.19886609    -0.75310
O191        O  0.96587954  0.96461311  0.19941239    -0.75130
O192        O  0.92794953  0.96978420  0.31219785    -0.74650
O193        O  0.92576537  0.96222103  0.15476725    -0.75330
O194        O  0.89851010  0.96078406  0.29138666    -0.74930
O195        O  0.96733026  0.96660365  0.26546856    -0.75510
O196        O  0.95438451  0.90318742  0.29545839    -0.74900
O197        O  0.95757271  0.92583992  0.15466687    -0.75660
O198        O  0.95842097  0.93244885  0.32333549    -0.75050
O199        O  0.96528825  0.90661602  0.20483698    -0.75510
O200        O  0.91787191  0.89840906  0.21949411    -0.75420
O201        O  0.89449451  0.92144509  0.22018045    -0.75210
C202        C  0.91075765  0.97136232  0.16596009     0.76580
C203        C  0.97362168  0.97090043  0.23131949     0.77070
C204        C  0.90959638  0.97177854  0.31266488     0.76030
C205        C  0.96154318  0.91415284  0.32277559     0.76400
C206        C  0.96847563  0.91286202  0.16993616     0.77540
C207        C  0.90064355  0.90436005  0.21076185     0.76590
Zn208      Zn  0.90506542  0.06059752  0.99109520     1.49720
Zn209      Zn  0.94085542  0.06023923  0.04615894     1.49360
Zn210      Zn  0.94429768  0.05563485  0.44962417     1.49110
Zn211      Zn  0.93929542  0.09607869  0.99022552     1.49480
O212        O  0.93230967  0.06852009  0.49298151    -1.84680
O213        O  0.90052781  0.04004755  0.03383042    -0.75310
O214        O  0.95670111  0.03672474  0.03833930    -0.75130
O215        O  0.92597228  0.04125393  0.41349955    -0.74650
O216        O  0.91963753  0.05092343  0.08213926    -0.75330
O217        O  0.89689061  0.04495302  0.44019771    -0.74930
O218        O  0.95999857  0.03500880  0.47266660    -0.75510
O219        O  0.95283988  0.10339094  0.43745473    -0.74900
O220        O  0.95863707  0.07904058  0.07480669    -0.75660
O221        O  0.96129126  0.07346580  0.41842952    -0.75050
O222        O  0.96070533  0.10320993  0.03137913    -0.75510
O223        O  0.91387641  0.10944307  0.00470997    -0.75420
O224        O  0.89092141  0.08583286  0.00535479    -0.75210
C225        C  0.90695114  0.03887997  0.06930978     0.76580
C226        C  0.96323486  0.02857795  0.50741222     0.77070
C227        C  0.90791166  0.03738819  0.41398236     0.76030
C228        C  0.96277502  0.09193180  0.41555722     0.76400
C229        C  0.96632210  0.09495472  0.06340825     0.77540
C230        C  0.89643988  0.10358188  0.01143780     0.76590
Zn231      Zn  0.05499931  0.91263975  0.49446100     1.49720
Zn232      Zn  0.08917088  0.94831678  0.49206297     1.49360
Zn233      Zn  0.04800840  0.95149696  0.45070674     1.49110
Zn234      Zn  0.05342991  0.95025563  0.04781710     1.49480
O235        O  0.06172245  0.94049943  0.49642322    -1.84680
O236        O  0.08029704  0.89941095  0.47813260    -0.75310
O237        O  0.09328764  0.96727598  0.44623390    -0.75130
O238        O  0.03284728  0.93284757  0.41619894    -0.74650
O239        O  0.10316109  0.92306571  0.47786922    -0.75330
O240        O  0.03366044  0.90615214  0.45305944    -0.74930
O241        O  0.06438000  0.96870281  0.41667302    -0.75510
O242        O  0.03032167  0.96610923  0.03832437    -0.74900
O243        O  0.09921892  0.96578948  0.03911555    -0.75660
O244        O  0.02745277  0.96763477  0.47253522    -0.75050
O245        O  0.07226769  0.96865869  0.07422870    -0.75510
O246        O  0.04338310  0.92988887  0.08497714    -0.75420
O247        O  0.04073861  0.90403911  0.04522381    -0.75210
C248        C  0.09765482  0.90539635  0.47106711     0.76580
C249        C  0.08202863  0.97404236  0.41944500     0.77070
C250        C  0.02671229  0.91577961  0.42391824     0.76030
C251        C  0.02162169  0.97178061  0.50712122     0.76400
C252        C  0.08964689  0.97378498  0.06715754     0.77540
C253        C  0.03655501  0.91299307  0.07733561     0.76590
Zn254      Zn  0.05416004  0.09835495  0.24193094     1.49720
Zn255      Zn  0.08900711  0.06307036  0.24205936     1.49360
Zn256      Zn  0.05038021  0.05882200  0.28561833     1.49110
Zn257      Zn  0.05240095  0.06049514  0.18843133     1.49480
O258        O  0.06163347  0.07070925  0.23864947    -1.84680
O259        O  0.07952037  0.11166042  0.25995128    -0.75310
O260        O  0.09327769  0.04204602  0.28414276    -0.75130
O261        O  0.03142279  0.07517096  0.31497964    -0.74650
O262        O  0.10240230  0.08813469  0.26110282    -0.75330
O263        O  0.03326409  0.10369588  0.28444002    -0.74930
O264        O  0.06903845  0.04758272  0.32505298    -0.75510
O265        O  0.03456379  0.03928056  0.20052993    -0.74900
O266        O  0.09891387  0.04789492  0.19245099    -0.75660
O267        O  0.03558308  0.03641844  0.26634796    -0.75050
O268        O  0.07217660  0.04694878  0.15514125    -0.75510
O269        O  0.03706871  0.07962933  0.15708916    -0.75420
O270        O  0.03943894  0.10754988  0.19077925    -0.75210
C271        C  0.09677688  0.10566395  0.26839653     0.76580
C272        C  0.08442258  0.03851761  0.31627669     0.77070
C273        C  0.02579741  0.09265338  0.31069710     0.76030
C274        C  0.02995739  0.03063803  0.23232714     0.76400
C275        C  0.08956682  0.04166351  0.16187264     0.77540
C276        C  0.03256889  0.09745023  0.16174622     0.76590
Zn277      Zn  0.65583736  0.19759736  0.36021655     1.49720
Zn278      Zn  0.68993541  0.16300022  0.36084496     1.49360
Zn279      Zn  0.69620448  0.20199311  0.31797798     1.49110
Zn280      Zn  0.69176091  0.19881715  0.41442915     1.49480
O281        O  0.68304243  0.19043196  0.36155041    -1.84680
O282        O  0.64219950  0.17254966  0.37875610    -0.75310
O283        O  0.70453347  0.15378916  0.31056127    -0.75130
O284        O  0.67804341  0.21865594  0.28597232    -0.74650
O285        O  0.66524212  0.14924525  0.37947731    -0.75330
O286        O  0.64836283  0.21095174  0.30732553    -0.74930
O287        O  0.71120628  0.18296014  0.28503291    -0.75510
O288        O  0.71526433  0.21442519  0.40621975    -0.74900
O289        O  0.71150985  0.15919645  0.40129181    -0.75660
O290        O  0.71682836  0.21843827  0.34055813    -0.75050
O291        O  0.70053738  0.17723351  0.45041468    -0.75510
O292        O  0.67428879  0.21744369  0.44267092    -0.75420
O293        O  0.65012038  0.22002423  0.39922372    -0.75210
C294        C  0.64794929  0.15513616  0.38704983     0.76580
C295        C  0.71391255  0.16460889  0.28632499     0.77070
C296        C  0.65965705  0.22066926  0.28457509     0.76030
C297        C  0.72320096  0.22140991  0.37553386     0.76400
C298        C  0.71294772  0.16541829  0.43670924     0.77540
C299        C  0.65890682  0.22578617  0.43059604     0.76590
Zn300      Zn  0.83583399  0.19983510  0.11121458     1.49720
Zn301      Zn  0.79495619  0.20594130  0.07721809     1.49360
Zn302      Zn  0.80179907  0.16515779  0.11271547     1.49110
Zn303      Zn  0.80001644  0.19958802  0.17076648     1.49480
O304        O  0.80876038  0.19238457  0.11840612    -1.84680
O305        O  0.83966671  0.22078329  0.06806451    -0.75310
O306        O  0.78662595  0.18873648  0.03157386    -0.75130
O307        O  0.82687921  0.15093197  0.09928275    -0.74650
O308        O  0.80915506  0.23003504  0.05888698    -0.75330
O309        O  0.84954555  0.17462617  0.09580970    -0.74930
O310        O  0.78324748  0.16156309  0.06668683    -0.75510
O311        O  0.79246220  0.17720547  0.20662164    -0.74900
O312        O  0.77042217  0.21449691  0.09988727    -0.75660
O313        O  0.78457767  0.15614087  0.15911503    -0.75050
O314        O  0.77488691  0.21330560  0.16523064    -0.75510
O315        O  0.81891858  0.21822211  0.19525608    -0.75420
O316        O  0.84594640  0.21529822  0.15967286    -0.75210
C317        C  0.82728004  0.23310207  0.05505753     0.76580
C318        C  0.77925395  0.17181649  0.03626930     0.77070
C319        C  0.84415029  0.15676964  0.09117666     0.76030
C320        C  0.78223264  0.16286789  0.19410730     0.76400
C321        C  0.76449872  0.21725395  0.13496788     0.77540
C322        C  0.83636378  0.22311518  0.18782639     0.76590
Zn323      Zn  0.68890481  0.30891653  0.16812777     1.49720
Zn324      Zn  0.65555835  0.31090621  0.11138677     1.49360
Zn325      Zn  0.68951170  0.34549856  0.11192292     1.49110
Zn326      Zn  0.69612797  0.30518693  0.07412715     1.49480
O327        O  0.68254783  0.31809941  0.11487271    -1.84680
O328        O  0.66614976  0.30140456  0.20216962    -0.75310
O329        O  0.64165085  0.33578875  0.12885941    -0.75130
O330        O  0.71036560  0.35135838  0.15347249    -0.74650
O331        O  0.65052663  0.28876462  0.15085938    -0.75330
O332        O  0.70758217  0.32662382  0.19578657    -0.74930
O333        O  0.66429884  0.35963513  0.12802235    -0.75510
O334        O  0.71728946  0.32245488  0.05222624    -0.74900
O335        O  0.64869922  0.29785673  0.05789347    -0.75660
O336        O  0.70514439  0.35227784  0.06067770    -0.75050
O337        O  0.67814592  0.29493621  0.03162240    -0.75510
O338        O  0.70732734  0.28138193  0.09758290    -0.75420
O339        O  0.70231379  0.28372793  0.16255723    -0.75210
C340        C  0.65529746  0.28810962  0.18744184     0.76580
C341        C  0.64705393  0.35347724  0.13596249     0.77070
C342        C  0.71568056  0.34241175  0.18480642     0.76030
C343        C  0.71815532  0.34085730  0.04658097     0.76400
C344        C  0.65994169  0.29148434  0.03080671     0.77540
C345        C  0.70843809  0.27450277  0.13256649     0.76590
Zn346      Zn  0.82196944  0.29333023  0.37026623     1.49720
Zn347      Zn  0.78492647  0.32161778  0.36785452     1.49360
Zn348      Zn  0.82269658  0.33499387  0.41219967     1.49110
Zn349      Zn  0.82003410  0.32734595  0.31180936     1.49480
O350        O  0.81268824  0.32002159  0.36599688    -1.84680
O351        O  0.79952854  0.27556650  0.37246067    -0.75310
O352        O  0.77453371  0.33598208  0.41299749    -0.75130
O353        O  0.83383399  0.31517954  0.45401590    -0.74650
O354        O  0.77412611  0.29554459  0.37346776    -0.75330
O355        O  0.83589385  0.28763870  0.41949088    -0.74930
O356        O  0.80005442  0.34818379  0.44506596    -0.75510
O357        O  0.84031749  0.34749539  0.32088770    -0.74900
O358        O  0.77340536  0.33387460  0.32083068    -0.75660
O359        O  0.84293666  0.35419994  0.38637338    -0.75050
O360        O  0.79749934  0.33923602  0.27923091    -0.75510
O361        O  0.83100336  0.30426032  0.27876120    -0.75420
O362        O  0.83762545  0.28316602  0.32646802    -0.75210
C363        C  0.78145706  0.27862602  0.37495480     0.76580
C364        C  0.78160915  0.34567646  0.44164965     0.77070
C365        C  0.83766804  0.29689799  0.45180392     0.76030
C366        C  0.84791857  0.35687716  0.34991395     0.76400
C367        C  0.77953924  0.34025652  0.28797447     0.77540
C368        C  0.83782638  0.28782399  0.29014632     0.76590
Zn369      Zn  0.44163733  0.41123414  0.49844202     1.49720
Zn370      Zn  0.40956667  0.44625041  0.50036378     1.49360
Zn371      Zn  0.45086926  0.45169254  0.03418755     1.49110
Zn372      Zn  0.44371357  0.44377364  0.44056184     1.49480
O373        O  0.43620259  0.43844393  0.49516999    -1.84680
O374        O  0.41670430  0.39862874  0.47808692    -0.75310
O375        O  0.40449611  0.46179790  0.05247758    -0.75130
O376        O  0.46143964  0.43303254  0.07480601    -0.74650
O377        O  0.39400378  0.42213054  0.48121333    -0.75330
O378        O  0.45352693  0.40340807  0.05183952    -0.74930
O379        O  0.43475243  0.47330557  0.05764270    -0.75510
O380        O  0.46845363  0.45814492  0.44319062    -0.74900
O381        O  0.40455069  0.46792220  0.46144956    -0.75660
O382        O  0.47407429  0.46254745  0.00786107    -0.75050
O383        O  0.42543146  0.46200959  0.41306766    -0.75510
O384        O  0.45143967  0.42017700  0.40817473    -0.75420
O385        O  0.46378522  0.40566882  0.46096533    -0.75210
C386        C  0.39945697  0.40489129  0.47092343     0.76580
C387        C  0.41664117  0.47485127  0.06475563     0.77070
C388        C  0.46235588  0.41446649  0.07683491     0.76030
C389        C  0.47906679  0.46406951  0.47175674     0.76400
C390        C  0.41176976  0.47199595  0.42794264     0.77540
C391        C  0.46461774  0.40975157  0.42423970     0.76590
Zn392      Zn  0.41993643  0.53949963  0.24030693     1.49720
Zn393      Zn  0.42856023  0.57471047  0.29755625     1.49360
Zn394      Zn  0.46009063  0.56257562  0.23881246     1.49110
Zn395      Zn  0.42208254  0.57964726  0.19939692     1.49480
O396        O  0.43270315  0.56488558  0.24428965    -1.84680
O397        O  0.40900395  0.53096978  0.29036022    -0.75310
O398        O  0.45336363  0.58694265  0.32210360    -0.75130
O399        O  0.46715489  0.53550951  0.22691528    -0.74650
O400        O  0.41881490  0.55291948  0.33469115    -0.75330
O401        O  0.43917019  0.51908585  0.22630608    -0.74930
O402        O  0.47549248  0.57324856  0.28389954    -0.75510
O403        O  0.44417038  0.59380259  0.16820791    -0.74900
O404        O  0.40776236  0.59455027  0.29094156    -0.75660
O405        O  0.46915419  0.57771037  0.19426005    -0.75050
O406        O  0.40154741  0.59825111  0.22556961    -0.75510
O407        O  0.41248608  0.55845538  0.15857521    -0.75420
O408        O  0.39924181  0.53724641  0.19923033    -0.75210
C409        C  0.41081578  0.53655072  0.32603246     0.76580
C410        C  0.47112081  0.58380692  0.31344888     0.77070
C411        C  0.45744673  0.51986959  0.22208403     0.76030
C412        C  0.46229540  0.58958480  0.16913419     0.76400
C413        C  0.39825053  0.60227586  0.26233398     0.77540
C414        C  0.40400057  0.54203227  0.16440673     0.76590
Zn415      Zn  0.55206958  0.40945467  0.25029582     1.49720
Zn416      Zn  0.58453078  0.44448112  0.25302097     1.49360
Zn417      Zn  0.54964981  0.44274982  0.19221373     1.49110
Zn418      Zn  0.54333592  0.45033100  0.28533041     1.49480
O419        O  0.55765195  0.43682579  0.24664724    -1.84680
O420        O  0.57730644  0.39638268  0.23290160    -0.75310
O421        O  0.59014568  0.46573795  0.21331587    -0.75130
O422        O  0.54152837  0.41934814  0.15938980    -0.74650
O423        O  0.60002369  0.42004237  0.23702729    -0.75330
O424        O  0.53002733  0.40375072  0.21138512    -0.74930
O425        O  0.56830146  0.46062831  0.16528468    -0.75510
O426        O  0.52027991  0.46181391  0.25908882    -0.74900
O427        O  0.58989543  0.46029609  0.30489181    -0.75660
O428        O  0.52520147  0.45774159  0.19441495    -0.75050
O429        O  0.55977198  0.47176181  0.30933391    -0.75510
O430        O  0.53238821  0.43199573  0.32555394    -0.75420
O431        O  0.53939011  0.40217471  0.30308577    -0.75210
C432        C  0.59473541  0.40258727  0.22742371     0.76580
C433        C  0.58262856  0.47008114  0.17989852     0.77070
C434        C  0.52868334  0.40844675  0.17497029     0.76030
C435        C  0.51503762  0.46379865  0.22305342     0.76400
C436        C  0.57791208  0.47332032  0.31686832     0.77540
C437        C  0.53086488  0.41347637  0.32759178     0.76590
Zn438      Zn  0.53485978  0.56070644  0.48875355     1.49720
Zn439      Zn  0.57277627  0.57776618  0.45085253     1.49360
Zn440      Zn  0.56642842  0.57282520  0.04888248     1.49110
Zn441      Zn  0.57525469  0.53799598  0.49122500     1.49480
O442        O  0.56223568  0.56308712  0.49545844    -1.84680
O443        O  0.52575558  0.57675256  0.44509314    -0.75310
O444        O  0.59330811  0.59618335  0.47717175    -0.75130
O445        O  0.54152385  0.58456962  0.07268673    -0.74650
O446        O  0.55102100  0.59255807  0.42005606    -0.75330
O447        O  0.51932469  0.57051081  0.03396314    -0.74930
O448        O  0.58664851  0.59341394  0.04233679    -0.75510
O449        O  0.58580526  0.52904217  0.04165706    -0.74900
O450        O  0.58206607  0.55682090  0.41006454    -0.75660
O451        O  0.57661740  0.55096044  0.08604337    -0.75050
O452        O  0.59614238  0.53634194  0.45131585    -0.75510
O453        O  0.55621542  0.51764061  0.47508676    -0.75420
O454        O  0.52814263  0.53373328  0.47463226    -0.75210
C455        C  0.53278421  0.58886628  0.42079441     0.76580
C456        C  0.59619072  0.60090196  0.01379874     0.77070
C457        C  0.52373910  0.58119113  0.06358385     0.76030
C458        C  0.58426830  0.53451506  0.07736686     0.76400
C459        C  0.59095251  0.54071054  0.41632588     0.77540
C460        C  0.53797145  0.51827903  0.46973307     0.76590
Zn461      Zn  0.67763055  0.82955108  0.40259529     1.49720
Zn462      Zn  0.68135769  0.81920423  0.30793921     1.49360
Zn463      Zn  0.71232302  0.80735772  0.36666945     1.49110
Zn464      Zn  0.66938040  0.78823627  0.36504301     1.49480
O465        O  0.68539439  0.81179436  0.36151127    -1.84680
O466        O  0.65761631  0.84767432  0.37324813    -0.75310
O467        O  0.70473111  0.83301011  0.28558665    -0.75130
O468        O  0.72389808  0.82154001  0.41144628    -0.74650
O469        O  0.65992882  0.83770856  0.30982049    -0.75330
O470        O  0.70192218  0.84373920  0.42782063    -0.74930
O471        O  0.72734357  0.81841780  0.32201043    -0.75510
O472        O  0.68713975  0.76549372  0.37275476    -0.74900
O473        O  0.67489026  0.79504546  0.27480610    -0.75660
O474        O  0.71659352  0.77937319  0.37402418    -0.75050
O475        O  0.65384954  0.78173248  0.31599182    -0.75510
O476        O  0.65242253  0.78815819  0.41225336    -0.75420
O477        O  0.66811831  0.81084633  0.44702171    -0.75210
C478        C  0.65241818  0.84849350  0.33632821     0.76580
C479        C  0.72251084  0.82997862  0.29417172     0.77070
C480        C  0.71918404  0.83678055  0.43034883     0.76030
C481        C  0.70551062  0.76451875  0.37607203     0.76400
C482        C  0.66236404  0.78188261  0.28279600     0.77540
C483        C  0.65878232  0.79462378  0.44523373     0.76590
Zn484      Zn  0.82198860  0.82574858  0.16781005     1.49720
Zn485      Zn  0.82291932  0.83025885  0.06803415     1.49360
Zn486      Zn  0.82181829  0.79059713  0.11703687     1.49110
Zn487      Zn  0.78624613  0.81973299  0.11750647     1.49480
O488        O  0.81364717  0.81729983  0.11585651    -1.84680
O489        O  0.84214611  0.84510253  0.15678095    -0.75310
O490        O  0.83413006  0.80892502  0.02931847    -0.75130
O491        O  0.84340857  0.78425497  0.15437355    -0.74650
O492        O  0.84349519  0.85016297  0.09067360    -0.75330
O493        O  0.83226907  0.80325332  0.20151947    -0.74930
O494        O  0.82990525  0.78190973  0.06497819    -0.75510
O495        O  0.77507391  0.79496721  0.13610148    -0.74900
O496        O  0.79912962  0.84278398  0.03705272    -0.75660
O497        O  0.79990820  0.77430297  0.13522426    -0.75050
O498        O  0.77465991  0.82776118  0.06718578    -0.75510
O499        O  0.77696933  0.83942538  0.15502501    -0.75420
O500        O  0.80038351  0.83768674  0.20010722    -0.75210
C501        C  0.84918197  0.85367075  0.12660098     0.76580
C502        C  0.83486157  0.79025861  0.03308159     0.77070
C503        C  0.84106901  0.78780421  0.19088967     0.76030
C504        C  0.78224276  0.77816480  0.14225519     0.76400
C505        C  0.78094105  0.83864901  0.03970360     0.77540
C506        C  0.78315637  0.84237608  0.18999466     0.76590
Zn507      Zn  0.69474387  0.66098292  0.10527172     1.49720
Zn508      Zn  0.66186762  0.69667344  0.10463544     1.49360
Zn509      Zn  0.69516672  0.69427412  0.16735567     1.49110
Zn510      Zn  0.70456761  0.70393846  0.07970560     1.49480
O511        O  0.68861935  0.68840276  0.11297749    -1.84680
O512        O  0.66916567  0.64772768  0.09072204    -0.75310
O513        O  0.65344983  0.71220361  0.15400174    -0.75130
O514        O  0.71350429  0.67507783  0.19095662    -0.74650
O515        O  0.64713071  0.67191672  0.08853679    -0.75330
O516        O  0.71259190  0.64977197  0.14975159    -0.74930
O517        O  0.67175007  0.69792056  0.19967711    -0.75510
O518        O  0.72575893  0.71427025  0.11320066    -0.74900
O519        O  0.65932118  0.71778966  0.06150129    -0.75660
O520        O  0.71066046  0.71870674  0.17046977    -0.75050
O521        O  0.69015456  0.72694206  0.05640350    -0.75510
O522        O  0.71734281  0.68817605  0.03744847    -0.75420
O523        O  0.71240099  0.65782410  0.05879058    -0.75210
C524        C  0.65198645  0.65401675  0.08303350     0.76580
C525        C  0.66024567  0.71148995  0.18935702     0.77070
C526        C  0.71978014  0.65855057  0.18006115     0.76030
C527        C  0.72500797  0.72152573  0.14783489     0.76400
C528        C  0.67216659  0.72990610  0.04960354     0.77540
C529        C  0.72031206  0.66988248  0.03525944     0.76590
Zn530      Zn  0.80153407  0.69702339  0.41129621     1.49720
Zn531      Zn  0.80536807  0.66202724  0.35849372     1.49360
Zn532      Zn  0.79766816  0.70118163  0.31712701     1.49110
Zn533      Zn  0.83789805  0.69735656  0.36029303     1.49480
O534        O  0.81105457  0.68948209  0.35984843    -1.84680
O535        O  0.79764677  0.67408765  0.44718590    -0.75310
O536        O  0.79246343  0.65288131  0.30630109    -0.75130
O537        O  0.77329722  0.71254954  0.33826390    -0.74650
O538        O  0.78426186  0.65732357  0.39802946    -0.75330
O539        O  0.77517753  0.70713538  0.40334383    -0.74930
O540        O  0.78808986  0.68159638  0.27654787    -0.75510
O541        O  0.84509778  0.71011969  0.30764737    -0.74900
O542        O  0.82989871  0.64925238  0.37908533    -0.75660
O543        O  0.81533266  0.72151416  0.29424205    -0.75050
O544        O  0.85221658  0.67335254  0.38052924    -0.75510
O545        O  0.84275771  0.72012635  0.39867694    -0.75420
O546        O  0.81659427  0.71897050  0.43639688    -0.75210
C547        C  0.78437114  0.66276257  0.43407105     0.76580
C548        C  0.78545516  0.66315901  0.27791589     0.77070
C549        C  0.76597735  0.71296682  0.37280950     0.76030
C550        C  0.83377172  0.72250239  0.29095443     0.76400
C551        C  0.84680882  0.65582135  0.38851456     0.77540
C552        C  0.83255278  0.72694406  0.42671941     0.76590
Zn553      Zn  0.94465873  0.44514231  0.30517010     1.49720
Zn554      Zn  0.94345478  0.41397691  0.24255553     1.49360
Zn555      Zn  0.91155933  0.44882790  0.24305074     1.49110
Zn556      Zn  0.95250480  0.45530346  0.21259296     1.49480
O557        O  0.93798806  0.44101363  0.24903796    -1.84680
O558        O  0.95791483  0.42206831  0.33264039    -0.75310
O559        O  0.91885496  0.40090482  0.26301438    -0.75130
O560        O  0.90729436  0.47019868  0.28293831    -0.74650
O561        O  0.96712805  0.40805957  0.27689530    -0.75330
O562        O  0.92383473  0.45948770  0.33542793    -0.74930
O563        O  0.89630674  0.42461897  0.26033619    -0.75510
O564        O  0.93586697  0.47586043  0.18581592    -0.74900
O565        O  0.95392355  0.40725018  0.18785831    -0.75660
O566        O  0.90581028  0.46402201  0.19092158    -0.75050
O567        O  0.96577077  0.43701404  0.17552118    -0.75510
O568        O  0.97346447  0.46796430  0.24277811    -0.75420
O569        O  0.96640747  0.46363309  0.30660722    -0.75210
C570        C  0.97010653  0.41186030  0.31336228     0.76580
C571        C  0.90166206  0.40724869  0.26992087     0.77070
C572        C  0.91250539  0.47187797  0.31907402     0.76030
C573        C  0.91772054  0.47696282  0.17801010     0.76400
C574        C  0.96530018  0.41868300  0.16902051     0.77540
C575        C  0.97710209  0.47037724  0.27950573     0.76590
Zn576      Zn  0.92024400  0.58205834  0.03932421     1.49720
Zn577      Zn  0.92918766  0.57879200  0.43858759     1.49360
Zn578      Zn  0.96109205  0.57569537  0.50016563     1.49110
Zn579      Zn  0.92689792  0.54433238  0.49178426     1.49480
O580        O  0.93404133  0.57129354  0.49368925    -1.84680
O581        O  0.90094490  0.60115059  0.01088632    -0.75310
O582        O  0.95303021  0.59124851  0.41025393    -0.75130
O583        O  0.96803962  0.58601889  0.05190382    -0.74650
O584        O  0.90829288  0.59818237  0.44574832    -0.75330
O585        O  0.94018878  0.59476059  0.07945309    -0.74930
O586        O  0.97384380  0.59241104  0.46044880    -0.75510
O587        O  0.95004977  0.52941662  0.47979371    -0.74900
O588        O  0.91996785  0.55518313  0.40416287    -0.75660
O589        O  0.97358190  0.55069244  0.49473985    -0.75050
O590        O  0.90702605  0.53767712  0.45190115    -0.75510
O591        O  0.91764103  0.53351332  0.04139692    -0.75420
O592        O  0.90814498  0.55954526  0.07490425    -0.75210
C593        C  0.89852751  0.60567486  0.47394445     0.76580
C594        C  0.96977078  0.59578279  0.42436738     0.77070
C595        C  0.95876727  0.59332830  0.08043724     0.76030
C596        C  0.96782450  0.53375592  0.48483260     0.76400
C597        C  0.91053069  0.54010094  0.41549211     0.77540
C598        C  0.91010220  0.54095014  0.07182960     0.76590
Zn599      Zn  0.06785989  0.43304867  0.04463633     1.49720
Zn600      Zn  0.07669647  0.42762799  0.44386851     1.49360
Zn601      Zn  0.03527008  0.43390274  0.48413023     1.49110
Zn602      Zn  0.06715294  0.46701653  0.48702965     1.49480
O603        O  0.06242517  0.43957571  0.48902964    -1.84680
O604        O  0.08901248  0.41427636  0.04010804    -0.75310
O605        O  0.05617042  0.41341896  0.40466078    -0.75130
O606        O  0.02282887  0.41937734  0.02694193    -0.74650
O607        O  0.09572524  0.40867878  0.47559791    -0.75330
O608        O  0.04468162  0.42106869  0.07506798    -0.74930
O609        O  0.02907634  0.41991268  0.43699072    -0.75510
O610        O  0.04294964  0.48097116  0.48582903    -0.74900
O611        O  0.09091333  0.44999593  0.40852327    -0.75660
O612        O  0.02055245  0.45776741  0.48054188    -0.75050
O613        O  0.08071096  0.47588798  0.44130249    -0.75510
O614        O  0.08189007  0.47814187  0.03087498    -0.75420
O615        O  0.07752406  0.45625684  0.07792313    -0.75210
C616        C  0.09868239  0.40575750  0.01317319     0.76580
C617        C  0.03754651  0.41258259  0.40761013     0.77070
C618        C  0.02760315  0.41665927  0.06278487     0.76030
C619        C  0.02544874  0.47555438  0.48227194     0.76400
C620        C  0.08987978  0.46868666  0.41272222     0.77540
C621        C  0.08296233  0.47320486  0.06686960     0.76590
Zn622      Zn  0.05733319  0.56099937  0.30944944     1.49720
Zn623      Zn  0.04614136  0.55260956  0.21788231     1.49360
Zn624      Zn  0.05410298  0.59478428  0.24395775     1.49110
Zn625      Zn  0.08877228  0.56138073  0.24430980     1.49480
O626        O  0.06177728  0.56783147  0.25372785    -1.84680
O627        O  0.03875980  0.53896765  0.31164423    -0.75310
O628        O  0.02326036  0.56718780  0.19512554    -0.75130
O629        O  0.03872205  0.60476932  0.29175390    -0.74650
O630        O  0.03588265  0.53094440  0.24793342    -0.75330
O631        O  0.04378682  0.58234267  0.33872766    -0.74930
O632        O  0.03340187  0.59785324  0.20004147    -0.75510
O633        O  0.10272678  0.58688293  0.23094822    -0.74900
O634        O  0.06144384  0.53924479  0.17606293    -0.75660
O635        O  0.07879501  0.60909765  0.22749872    -0.75050
O636        O  0.09177106  0.54402548  0.19720023    -0.75510
O637        O  0.09858682  0.54180440  0.28641421    -0.75420
O638        O  0.07994659  0.54800360  0.33811741    -0.75210
C639        C  0.03316273  0.52746947  0.28435445     0.76580
C640        C  0.02087020  0.58529485  0.18826648     0.77070
C641        C  0.03535865  0.59771543  0.32613494     0.76030
C642        C  0.09654309  0.60407512  0.22235186     0.76400
C643        C  0.07953978  0.53587702  0.17413849     0.77540
C644        C  0.09295752  0.53775321  0.32142010     0.76590
Zn645      Zn  0.32186232  0.82603982  0.06433194     1.49720
Zn646      Zn  0.28622728  0.82201032  0.11937525     1.49360
Zn647      Zn  0.32171894  0.79144495  0.12101704     1.49110
Zn648      Zn  0.32467263  0.83244892  0.16508318     1.49480
O649        O  0.31393253  0.81860479  0.11789582    -1.84680
O650        O  0.29992070  0.83801672  0.03095757    -0.75310
O651        O  0.27401948  0.79671710  0.12777900    -0.75130
O652        O  0.33513709  0.77999741  0.07522637    -0.74650
O653        O  0.27500774  0.83341208  0.07088839    -0.75330
O654        O  0.33238055  0.80327562  0.03035583    -0.74930
O655        O  0.29838235  0.77545668  0.12645232    -0.75510
O656        O  0.33628499  0.81182302  0.20491932    -0.74900
O657        O  0.27677597  0.83807756  0.16289269    -0.75660
O658        O  0.33700217  0.78499478  0.16793019    -0.75050
O659        O  0.30269587  0.84626804  0.19864292    -0.75510
O660        O  0.34492320  0.85161512  0.14029557    -0.75420
O661        O  0.34226432  0.84573725  0.07449338    -0.75210
C662        C  0.28181283  0.83915630  0.03811067     0.76580
C663        C  0.28054005  0.77947051  0.12967861     0.77070
C664        C  0.33695389  0.78582375  0.03985472     0.76030
C665        C  0.33995614  0.79358707  0.20066861     0.76400
C666        C  0.28422133  0.84627707  0.19305660     0.77540
C667        C  0.34990123  0.85467119  0.10402912     0.76590
Zn668      Zn  0.15710122  0.81209300  0.35844671     1.49720
Zn669      Zn  0.19168592  0.84665521  0.36115457     1.49360
Zn670      Zn  0.19430652  0.80613358  0.40385554     1.49110
Zn671      Zn  0.19469766  0.80917755  0.30906139     1.49480
O672        O  0.18429302  0.81918032  0.35740893    -1.84680
O673        O  0.14354130  0.83718322  0.37533419    -0.75310
O674        O  0.21128270  0.85113449  0.40591942    -0.75130
O675        O  0.17445735  0.79842880  0.44437278    -0.74650
O676        O  0.16660235  0.86062402  0.37599711    -0.75330
O677        O  0.15197754  0.79073238  0.39982777    -0.74930
O678        O  0.21582551  0.82112953  0.42929358    -0.75510
O679        O  0.20605366  0.78347280  0.32073897    -0.74900
O680        O  0.20857487  0.85586218  0.31349850    -0.75660
O681        O  0.20473873  0.78101698  0.38638567    -0.75050
O682        O  0.21598299  0.82659838  0.28910546    -0.75510
O683        O  0.17446719  0.80248601  0.26760954    -0.75420
O684        O  0.14899863  0.79815719  0.30679970    -0.75210
C685        C  0.14918846  0.85474265  0.38280478     0.76580
C686        C  0.22037639  0.83911099  0.42800869     0.77070
C687        C  0.15979116  0.78825433  0.43385706     0.76030
C688        C  0.20868943  0.77393687  0.35261969     0.76400
C689        C  0.21934068  0.84484440  0.29223817     0.77540
C690        C  0.15782640  0.79500367  0.27422408     0.76590
Zn691      Zn  0.30182747  0.66279937  0.36062005     1.49720
Zn692      Zn  0.33627026  0.69694661  0.36253677     1.49360
Zn693      Zn  0.29863895  0.70025637  0.31172661     1.49110
Zn694      Zn  0.29675128  0.70143606  0.40622265     1.49480
O695        O  0.30885987  0.69010910  0.36137917    -1.84680
O696        O  0.32687895  0.64853156  0.34500360    -0.75310
O697        O  0.34246011  0.71909821  0.32365792    -0.75130
O698        O  0.29226737  0.67951033  0.27108526    -0.74650
O699        O  0.34987086  0.67201732  0.34486826    -0.75330
O700        O  0.28190485  0.65892410  0.31687160    -0.74930
O701        O  0.31448153  0.72284801  0.29130740    -0.75510
O702        O  0.27279642  0.71426990  0.38795931    -0.74900
O703        O  0.34409776  0.71058508  0.41514131    -0.75660
O704        O  0.27294001  0.71107854  0.32239353    -0.75050
O705        O  0.31450791  0.72120545  0.43052323    -0.75510
O706        O  0.28643534  0.68216595  0.44574619    -0.75420
O707        O  0.28560428  0.65482567  0.40999513    -0.75210
C708        C  0.34424311  0.65443556  0.33758590     0.76580
C709        C  0.33171875  0.72848016  0.29933912     0.77070
C710        C  0.28057723  0.66616300  0.28219428     0.76030
C711        C  0.26472114  0.71625026  0.35416110     0.76400
C712        C  0.33292413  0.72249994  0.43324492     0.77540
C713        C  0.28026711  0.66480740  0.44014385     0.76590
Zn714      Zn  0.18898811  0.66451794  0.11022822     1.49720
Zn715      Zn  0.15480478  0.69903808  0.10858451     1.49360
Zn716      Zn  0.18972467  0.70018490  0.16560451     1.49110
Zn717      Zn  0.19551745  0.70366750  0.06919266     1.49480
O718        O  0.18198787  0.69186417  0.11182792    -1.84680
O719        O  0.16410532  0.65072377  0.12677560    -0.75310
O720        O  0.14900177  0.72179474  0.14679139    -0.75130
O721        O  0.20011665  0.67892073  0.20090031    -0.74650
O722        O  0.14096738  0.67394272  0.12650179    -0.75330
O723        O  0.20997929  0.66009650  0.15181240    -0.74930
O724        O  0.17107694  0.71767260  0.19420919    -0.75510
O725        O  0.21552781  0.72009509  0.09312060    -0.74900
O726        O  0.14778590  0.71212147  0.05505098    -0.75660
O727        O  0.21236398  0.71716297  0.15872128    -0.75050
O728        O  0.17780362  0.72067407  0.03740247    -0.75510
O729        O  0.21101996  0.68503914  0.03619866    -0.75420
O730        O  0.20390476  0.65563572  0.05994305    -0.75210
C731        C  0.14673984  0.65645238  0.13406970     0.76580
C732        C  0.15665525  0.72687578  0.17983680     0.77070
C733        C  0.21183701  0.66637206  0.18717114     0.76030
C734        C  0.22092963  0.72377386  0.12843894     0.76400
C735        C  0.15945389  0.72244241  0.03426668     0.77540
C736        C  0.21357990  0.66665689  0.03658504     0.76590
C737        C  0.26573462  0.66077678  0.00758028    -0.13900
C738        C  0.26435444  0.65787454  0.46637585     0.08250
C739        C  0.24582730  0.65409853  0.44960893    -0.13900
C740        C  0.22894716  0.65505637  0.47294133    -0.13900
C741        C  0.23035135  0.65912514  0.01374773     0.08250
C742        C  0.24897810  0.66113475  0.03099131    -0.13900
H743        H  0.27964742  0.66428484  0.02121000     0.12230
H744        H  0.24420436  0.65250248  0.41774154     0.12230
H745        H  0.21480997  0.65407106  0.45862855     0.12230
H746        H  0.25046437  0.66482491  0.06217798     0.12230
C747        C  0.26455014  0.66159557  0.21560433    -0.13900
C748        C  0.26354941  0.66114294  0.25714122     0.08250
C749        C  0.24527625  0.65927302  0.27517718    -0.13900
C750        C  0.22822085  0.65962935  0.25225783    -0.13900
C751        C  0.22918137  0.66107044  0.21082977     0.08250
C752        C  0.24748750  0.66116548  0.19258096    -0.13900
H753        H  0.27843468  0.66323080  0.20109792     0.12230
H754        H  0.24409629  0.65921966  0.30723011     0.12230
H755        H  0.21429692  0.65977298  0.26696041     0.12230
H756        H  0.24858049  0.66261953  0.16065177     0.12230
C757        C  0.15010650  0.75331038  0.44372878    -0.13900
C758        C  0.15339908  0.77205514  0.45989519     0.08250
C759        C  0.15452618  0.77411687  0.00128390    -0.13900
C760        C  0.15382776  0.75765998  0.02585739    -0.13900
C761        C  0.15242274  0.73878544  0.00956155     0.08250
C762        C  0.14996200  0.73673246  0.46837170    -0.13900
H763        H  0.14957578  0.75128394  0.41183445     0.12230
H764        H  0.15726297  0.78832610  0.01446635     0.12230
H765        H  0.15624060  0.75954360  0.05748673     0.12230
H766        H  0.14946721  0.72231762  0.45507509     0.12230
C767        C  0.14431729  0.76166396  0.26275784    -0.13900
C768        C  0.15062961  0.77956500  0.24661938     0.08250
C769        C  0.15513409  0.78024134  0.20602539    -0.13900
C770        C  0.15471667  0.76314541  0.18290674    -0.13900
C771        C  0.15044524  0.74495836  0.20024693     0.08250
C772        C  0.14465868  0.74445647  0.24004226    -0.13900
H773        H  0.14122034  0.76053698  0.29414456     0.12230
H774        H  0.16040822  0.79368732  0.19294851     0.12230
H775        H  0.15961863  0.76384521  0.15247410     0.12230
H776        H  0.14166607  0.73058782  0.25426185     0.12230
C777        C  0.22186432  0.74468567  0.38609547    -0.13900
C778        C  0.21786673  0.75482099  0.35078595     0.08250
C779        C  0.22560026  0.74822467  0.31485019    -0.13900
C780        C  0.23965946  0.73376896  0.31527760    -0.13900
C781        C  0.24599303  0.72597860  0.35164827     0.08250
C782        C  0.23596633  0.73030223  0.38653969    -0.13900
H783        H  0.21551225  0.74908469  0.41398976     0.12230
H784        H  0.22225391  0.75546206  0.28702582     0.12230
H785        H  0.24686088  0.73019171  0.28777912     0.12230
H786        H  0.24019060  0.72388002  0.41471270     0.12230
C787        C  0.33738695  0.77401994  0.46940385    -0.13900
C788        C  0.34235446  0.77108757  0.00946208     0.08250
C789        C  0.34856203  0.75231869  0.02148727    -0.13900
C790        C  0.34766889  0.73643519  0.49518018    -0.13900
C791        C  0.34069384  0.73910817  0.45641229     0.08250
C792        C  0.33642045  0.75812594  0.44323196    -0.13900
H793        H  0.33245040  0.78817583  0.45917689     0.12230
H794        H  0.35254865  0.74954981  0.05215747     0.12230
H795        H  0.35073044  0.72187395  0.50611559     0.12230
H796        H  0.33076621  0.76042299  0.41345267     0.12230
C797        C  0.32994585  0.76461066  0.29132348    -0.13900
C798        C  0.33875925  0.74681377  0.28122489     0.08250
C799        C  0.35220251  0.74649252  0.25033596    -0.13900
C800        C  0.35512652  0.76323405  0.22710807    -0.13900
C801        C  0.34471280  0.78057615  0.23452668     0.08250
C802        C  0.33309784  0.78144491  0.26848771    -0.13900
H803        H  0.31955985  0.76513618  0.31524853     0.12230
H804        H  0.35913710  0.73292447  0.24205669     0.12230
H805        H  0.36395989  0.76202643  0.20078896     0.12230
H806        H  0.32457632  0.79436632  0.27453196     0.12230
C807        C  0.26874420  0.74697842  0.11110401    -0.13900
C808        C  0.26690123  0.76373065  0.13450476     0.08250
C809        C  0.25098531  0.76616383  0.15954574    -0.13900
C810        C  0.23636379  0.75220289  0.15972059    -0.13900
C811        C  0.23753220  0.73623863  0.13399327     0.08250
C812        C  0.25387714  0.73332503  0.11042620    -0.13900
H813        H  0.28102402  0.74510647  0.09159839     0.12230
H814        H  0.24961984  0.77911251  0.17784292     0.12230
H815        H  0.22365674  0.75445717  0.17787589     0.12230
H816        H  0.25477537  0.72087234  0.09062054     0.12230
C817        C  0.27189599  0.84826304  0.26274327    -0.13900
C818        C  0.27012290  0.85375092  0.22271101     0.08250
C819        C  0.25191759  0.86065728  0.20906263    -0.13900
C820        C  0.23545968  0.85995583  0.23335501    -0.13900
C821        C  0.23686281  0.85246296  0.27194920     0.08250
C822        C  0.25537846  0.84747043  0.28699676    -0.13900
H823        H  0.28549315  0.84243776  0.27396940     0.12230
H824        H  0.24998988  0.86474378  0.17820590     0.12230
H825        H  0.22136991  0.86352352  0.22075340     0.12230
H826        H  0.25677063  0.84128706  0.31649046     0.12230
C827        C  0.24907202  0.85147426  0.01900208    -0.13900
C828        C  0.26777361  0.84559669  0.00745264     0.08250
C829        C  0.27128246  0.84188649  0.46718123    -0.13900
C830        C  0.25581554  0.84172077  0.43987380    -0.13900
C831        C  0.23684746  0.84562349  0.45248569     0.08250
C832        C  0.23368768  0.85141934  0.99167602    -0.13900
H833        H  0.24600001  0.85451513  0.04987275     0.12230
H834        H  0.28549353  0.83720357  0.45756164     0.12230
H835        H  0.25837906  0.83698408  0.40967945     0.12230
H836        H  0.21908843  0.85424951  0.00188945     0.12230
C837        C  0.12827367  0.61187764  0.18961125    -0.13900
C838        C  0.10988464  0.61803264  0.20234084     0.08250
C839        C  0.10348669  0.63679539  0.19130355    -0.13900
C840        C  0.11513019  0.64902273  0.16804860    -0.13900
C841        C  0.13346166  0.64279399  0.15508397     0.08250
C842        C  0.13987939  0.62406749  0.16629714    -0.13900
H843        H  0.13359651  0.59744554  0.19699947     0.12230
H844        H  0.08932921  0.64196999  0.20017022     0.12230
H845        H  0.10981892  0.66344631  0.16056151     0.12230
H846        H  0.15400539  0.61883377  0.15736657     0.12230
C847        C  0.10469014  0.50149782  0.40271328    -0.13900
C848        C  0.09837876  0.48367021  0.38542442     0.08250
C849        C  0.09455717  0.48348960  0.34435997    -0.13900
C850        C  0.09516926  0.50106788  0.32230185    -0.13900
C851        C  0.09919076  0.51918629  0.34100745     0.08250
C852        C  0.10464626  0.51902690  0.38113416    -0.13900
H853        H  0.10762185  0.50227212  0.43435433     0.12230
H854        H  0.08918904  0.47028901  0.33018816     0.12230
H855        H  0.09049495  0.50077945  0.29148971     0.12230
H856        H  0.10757393  0.53265127  0.39652011     0.12230
C857        C  0.09108448  0.50790193  0.08216734    -0.13900
C858        C  0.08831275  0.48856515  0.09578459     0.08250
C859        C  0.08656026  0.48519776  0.13662534    -0.13900
C860        C  0.08541438  0.50099150  0.16271560    -0.13900
C861        C  0.08594744  0.52020650  0.14820287     0.08250
C862        C  0.08959856  0.52366183  0.10820216    -0.13900
H863        H  0.09264702  0.51101572  0.05083772     0.12230
H864        H  0.08445193  0.47054346  0.14797454     0.12230
H865        H  0.08259595  0.49824339  0.19382015     0.12230
H866        H  0.09003931  0.53845114  0.09676749     0.12230
C867        C  0.96922622  0.58500313  0.14837985    -0.13900
C868        C  0.97060037  0.59781411  0.11605406     0.08250
C869        C  0.98776223  0.60887832  0.11164527    -0.13900
C870        C  0.00378452  0.60596888  0.13707140    -0.13900
C871        C  0.00307991  0.59150050  0.16652744     0.08250
C872        C  0.98539712  0.58167279  0.17303572    -0.13900
H873        H  0.95645195  0.57586001  0.15175240     0.12230
H874        H  0.98939884  0.61841697  0.08622815     0.12230
H875        H  0.01720364  0.61378385  0.13151708     0.12230
H876        H  0.98440736  0.57061038  0.19592556     0.12230
C877        C  0.00458352  0.60544629  0.41543039    -0.13900
C878        C  0.98581311  0.60307185  0.39870936     0.08250
C879        C  0.98375933  0.60414689  0.35719521    -0.13900
C880        C  0.00027948  0.60541861  0.33307099    -0.13900
C881        C  0.01909030  0.60522452  0.35003032     0.08250
C882        C  0.02101432  0.60616161  0.39139842    -0.13900
H883        H  0.00682578  0.60489700  0.44728084     0.12230
H884        H  0.96960162  0.60237744  0.34327947     0.12230
H885        H  0.99840079  0.60429026  0.30116956     0.12230
H886        H  0.03529748  0.60576659  0.40521425     0.12230
C887        C  0.01588334  0.50992075  0.47643320    -0.13900
C888        C  0.01054164  0.49025923  0.48026103     0.08250
C889        C  0.99094768  0.48481822  0.48288002    -0.13900
C890        C  0.97678873  0.49906520  0.48286200    -0.13900
C891        C  0.98222934  0.51874746  0.48035746     0.08250
C892        C  0.00176044  0.52412494  0.47645778    -0.13900
H893        H  0.03095184  0.51436344  0.47392538     0.12230
H894        H  0.98659826  0.46965750  0.48585575     0.12230
H895        H  0.96172639  0.49474224  0.48614926     0.12230
H896        H  0.00615082  0.53930734  0.47414286     0.12230
C897        C  0.00741653  0.51047807  0.32109777    -0.13900
C898        C  0.02266011  0.50984392  0.29395187     0.08250
C899        C  0.02511564  0.49358326  0.26929259    -0.13900
C900        C  0.01078517  0.47944259  0.26734928    -0.13900
C901        C  0.99415891  0.48150002  0.29038872     0.08250
C902        C  0.99304661  0.49614722  0.31934209    -0.13900
H903        H  0.00551021  0.52300789  0.34033887     0.12230
H904        H  0.03712293  0.49283994  0.24877018     0.12230
H905        H  0.01190317  0.46782199  0.24560100     0.12230
H906        H  0.98023500  0.49763429  0.33750790     0.12230
C907        C  0.99274576  0.40848370  0.07606151    -0.13900
C908        C  0.01205004  0.41047620  0.09042814     0.08250
C909        C  0.01531896  0.41044308  0.13158514    -0.13900
C910        C  0.99957937  0.41067152  0.15754404    -0.13900
C911        C  0.98037182  0.41094651  0.14284938     0.08250
C912        C  0.97701704  0.40899419  0.10207144    -0.13900
H913        H  0.98964830  0.40835620  0.04447084     0.12230
H914        H  0.02989857  0.41196146  0.14365140     0.12230
H915        H  0.00240577  0.41246469  0.18906046     0.12230
H916        H  0.96234589  0.40952443  0.09015334     0.12230
C917        C  0.98924645  0.39705592  0.36935840    -0.13900
C918        C  0.98883863  0.40621532  0.33229283     0.08250
C919        C  0.00652936  0.41265179  0.31585765    -0.13900
C920        C  0.02394375  0.41203163  0.33823525    -0.13900
C921        C  0.02396528  0.40453694  0.37703133     0.08250
C922        C  0.00669219  0.39575355  0.39095473    -0.13900
H923        H  0.97588631  0.39194775  0.38263142     0.12230
H924        H  0.00653314  0.41991705  0.28728676     0.12230
H925        H  0.03673297  0.41935835  0.32698442     0.12230
H926        H  0.00614900  0.39003595  0.42092356     0.12230
C927        C  0.91780801  0.51300015  0.16606036    -0.13900
C928        C  0.91093735  0.49429490  0.15510706     0.08250
C929        C  0.89982567  0.49243961  0.12016456    -0.13900
C930        C  0.89740008  0.50859874  0.09477346    -0.13900
C931        C  0.90557368  0.52702129  0.10433065     0.08250
C932        C  0.91495582  0.52923071  0.14121544    -0.13900
H933        H  0.92636611  0.51484126  0.19300104     0.12230
H934        H  0.89443405  0.47823740  0.11090860     0.12230
H935        H  0.89045958  0.50634590  0.06610248     0.12230
H936        H  0.92186110  0.54299335  0.14897394     0.12230
C937        C  0.90213377  0.48835470  0.38125063    -0.13900
C938        C  0.90701585  0.48955607  0.34117728     0.08250
C939        C  0.90971024  0.50806674  0.32378900    -0.13900
C940        C  0.90940164  0.52502887  0.34717788    -0.13900
C941        C  0.90583592  0.52371886  0.38805094     0.08250
C942        C  0.90116040  0.50528378  0.40427363    -0.13900
H943        H  0.90000501  0.47425112  0.39518247     0.12230
H944        H  0.91366448  0.50927260  0.29283077     0.12230
H945        H  0.91311248  0.53893011  0.33383546     0.12230
H946        H  0.89832251  0.50365489  0.43566320     0.12230
C947        C  0.87863668  0.64974863  0.42328390    -0.13900
C948        C  0.85993009  0.64321262  0.41236167     0.08250
C949        C  0.85323101  0.62524388  0.42750361    -0.13900
C950        C  0.86524597  0.61375662  0.45166606    -0.13900
C951        C  0.88409371  0.62006536  0.46131426     0.08250
C952        C  0.89064256  0.63819218  0.44725939    -0.13900
H953        H  0.88416752  0.66361040  0.41266201     0.12230
H954        H  0.83878500  0.61990387  0.42026945     0.12230
H955        H  0.86023816  0.59945280  0.46093866     0.12230
H956        H  0.90543845  0.64293147  0.45317714     0.12230
C957        C  0.73287055  0.66560331  0.46699021    -0.13900
C958        C  0.73508302  0.66294587  0.00793346     0.08250
C959        C  0.75307888  0.65704021  0.02373374    -0.13900
C960        C  0.76920984  0.65547133  0.99917657    -0.13900
C961        C  0.76725200  0.65908058  0.45843294     0.08250
C962        C  0.74881773  0.66326021  0.44220435    -0.13900
H963        H  0.71914181  0.67048949  0.45457528     0.12230
H964        H  0.75501366  0.65528937  0.05550653     0.12230
H965        H  0.78335790  0.65252769  0.01219858     0.12230
H966        H  0.74713410  0.66652157  0.41087873     0.12230
C967        C  0.73746576  0.64484606  0.23921966    -0.13900
C968        C  0.73777573  0.65167890  0.19995110     0.08250
C969        C  0.75553756  0.65827532  0.18443104    -0.13900
C970        C  0.77211162  0.66000486  0.20880632    -0.13900
C971        C  0.77145740  0.65453693  0.24892085     0.08250
C972        C  0.75429398  0.64586815  0.26324233    -0.13900
H973        H  0.72385737  0.64034839  0.25232560     0.12230
H974        H  0.75601865  0.66423890  0.15465313     0.12230
H975        H  0.78492830  0.66716658  0.19724211     0.12230
H976        H  0.75319195  0.64206424  0.29435684     0.12230
C977        C  0.83948634  0.77453051  0.25967404    -0.13900
C978        C  0.84574268  0.77240228  0.22037457     0.08250
C979        C  0.85203972  0.75384243  0.20756987    -0.13900
C980        C  0.84995030  0.73741476  0.23205218    -0.13900
C981        C  0.84161851  0.73942053  0.26954462     0.08250
C982        C  0.83728275  0.75814662  0.28387127    -0.13900
H983        H  0.83454693  0.78853994  0.27054487     0.12230
H984        H  0.85692536  0.75168803  0.17742985     0.12230
H985        H  0.85325270  0.72304752  0.22047118     0.12230
H986        H  0.83083160  0.75991449  0.31286687     0.12230
C987        C  0.83239335  0.77915893  0.46219073    -0.13900
C988        C  0.84042518  0.77697795  0.00039338     0.08250
C989        C  0.84935391  0.75910390  0.01041742    -0.13900
C990        C  0.84836630  0.74310487  0.98464782    -0.13900
C991        C  0.83867677  0.74474618  0.44813712     0.08250
C992        C  0.83144504  0.76306483  0.43626138    -0.13900
H993        H  0.82511667  0.79258625  0.45395899     0.12230
H994        H  0.85556435  0.75697645  0.03978967     0.12230
H995        H  0.85383668  0.72907702  0.99449929     0.12230
H996        H  0.82368932  0.76449755  0.40826342     0.12230
C997        C  0.77412449  0.74313780  0.14763284    -0.13900
C998        C  0.76942765  0.76261639  0.15580988     0.08250
C999        C  0.75119851  0.76723199  0.17162464    -0.13900
C1000       C  0.73691824  0.75287665  0.17408239    -0.13900
C1001       C  0.74088553  0.73408351  0.16020343     0.08250
C1002       C  0.75978316  0.72890525  0.14949314    -0.13900
H1003       H  0.78821037  0.73922727  0.13604024     0.12230
H1004       H  0.74751035  0.78216735  0.17902237     0.12230
H1005       H  0.72233207  0.75693083  0.18256864     0.12230
H1006       H  0.76295718  0.71426180  0.13917154     0.12230
C1007       C  0.72643782  0.74316857  0.41509819    -0.13900
C1008       C  0.71487644  0.74585750  0.38115726     0.08250
C1009       C  0.71764010  0.73430465  0.34745912    -0.13900
C1010       C  0.73370012  0.72210616  0.34566567    -0.13900
C1011       C  0.74672038  0.72127056  0.37791300     0.08250
C1012       C  0.74225165  0.73067802  0.41366503    -0.13900
H1013       H  0.72448092  0.75227157  0.44109677     0.12230
H1014       H  0.70885858  0.73644548  0.32100545     0.12230
H1015       H  0.73675948  0.71457211  0.31813877     0.12230
H1016       H  0.75204069  0.73002208  0.43903250     0.12230
C1017       C  0.64400207  0.75966824  0.23525584    -0.13900
C1018       C  0.66074329  0.76443387  0.25755607     0.08250
C1019       C  0.67609760  0.75118603  0.25948164    -0.13900
C1020       C  0.67495525  0.73341440  0.23960399    -0.13900
C1021       C  0.65865150  0.72865910  0.21592040     0.08250
C1022       C  0.64317477  0.74203567  0.21359149    -0.13900
H1023       H  0.63185393  0.76966387  0.23405543     0.12230
H1024       H  0.68900401  0.75458999  0.27685870     0.12230
H1025       H  0.68737153  0.72375863  0.24136240     0.12230
H1026       H  0.63061712  0.73890947  0.19497396     0.12230
C1027       C  0.67420714  0.78116427  0.50665210    -0.13900
C1028       C  0.65848608  0.78104002  0.47968778     0.08250
C1029       C  0.64583993  0.76475540  0.47956001    -0.13900
C1030       C  0.64962126  0.74847069  0.50377423    -0.13900
C1031       C  0.66638555  0.74794014  0.02789582     0.08250
C1032       C  0.67823278  0.76473427  0.03009012    -0.13900
H1033       H  0.68442094  0.79325597  0.00713910     0.12230
H1034       H  0.63371573  0.76408454  0.45882450     0.12230
H1035       H  0.64012047  0.73584018  0.50174495     0.12230
H1036       H  0.69106982  0.76491024  0.04898451     0.12230
C1037       C  0.73120843  0.84830505  0.99658473    -0.13900
C1038       C  0.73459666  0.84531377  0.45616356     0.08250
C1039       C  0.75399236  0.84501954  0.44284527    -0.13900
C1040       C  0.76964817  0.84528398  0.46988100    -0.13900
C1041       C  0.76611269  0.84563854  0.01071664     0.08250
C1042       C  0.74683746  0.84838734  0.02363495    -0.13900
H1043       H  0.71649855  0.84835414  0.00772382     0.12230
H1044       H  0.75697755  0.84266065  0.41168654     0.12230
H1045       H  0.78424490  0.84309623  0.45906279     0.12230
H1046       H  0.74369882  0.84884127  0.05507681     0.12230
C1047       C  0.73416811  0.84723955  0.23347475    -0.13900
C1048       C  0.73802800  0.83943923  0.27118972     0.08250
C1049       C  0.75732412  0.83891964  0.28531529    -0.13900
C1050       C  0.77264766  0.84326422  0.26002666    -0.13900
C1051       C  0.76883157  0.84790231  0.22016809     0.08250
C1052       C  0.74951172  0.85155051  0.20812376    -0.13900
H1053       H  0.71940083  0.84831672  0.22226220     0.12230
H1054       H  0.76066805  0.83364778  0.31491605     0.12230
H1055       H  0.78735968  0.84062771  0.27038386     0.12230
H1056       H  0.74612979  0.85550817  0.17769685     0.12230
C1057       C  0.63029979  0.60965634  0.03075912    -0.13900
C1058       C  0.61096662  0.61542784  0.02513481     0.08250
C1059       C  0.60503678  0.63375491  0.03904192    -0.13900
C1060       C  0.61827737  0.64623291  0.05821257    -0.13900
C1061       C  0.63764253  0.64042107  0.06457932     0.08250
C1062       C  0.64353787  0.62203421  0.05029733    -0.13900
H1063       H  0.63494734  0.59527197  0.02143627     0.12230
H1064       H  0.58998531  0.63815691  0.03608195     0.12230
H1065       H  0.61326844  0.66031624  0.06852210     0.12230
H1066       H  0.65838419  0.61716735  0.05426762     0.12230
C1067       C  0.57527039  0.50913281  0.32974784    -0.13900
C1068       C  0.58454143  0.49127981  0.33826278     0.08250
C1069       C  0.59871266  0.49092916  0.36852997    -0.13900
C1070       C  0.60221557  0.50768566  0.39197746    -0.13900
C1071       C  0.59194044  0.52524280  0.38503196     0.08250
C1072       C  0.57904823  0.52590500  0.35248006    -0.13900
H1073       H  0.56446709  0.50994309  0.30617588     0.12230
H1074       H  0.60613629  0.47744001  0.37568646     0.12230
H1075       H  0.61213924  0.50655689  0.41703118     0.12230
H1076       H  0.57070177  0.53896865  0.34638773     0.12230
C1077       C  0.59683891  0.48574991  0.12086190    -0.13900
C1078       C  0.58920551  0.48753381  0.15886961     0.08250
C1079       C  0.58374601  0.50602250  0.17301856    -0.13900
C1080       C  0.58391324  0.52224518  0.14767577    -0.13900
C1081       C  0.58978723  0.52007401  0.10815010     0.08250
C1082       C  0.59751871  0.50197098  0.09596796    -0.13900
H1083       H  0.60099207  0.47156228  0.10950940     0.12230
H1084       H  0.57759700  0.50751134  0.20234654     0.12230
H1085       H  0.57790752  0.53593173  0.15792864     0.12230
H1086       H  0.60244482  0.49980087  0.06585544     0.12230
C1087       C  0.35293806  0.62127499  0.31021203    -0.13900
C1088       C  0.35789610  0.64097832  0.31711965     0.08250
C1089       C  0.37543199  0.64815455  0.30133911    -0.13900
C1090       C  0.38786541  0.63586213  0.28017375    -0.13900
C1091       C  0.38303095  0.61616014  0.27406174     0.08250
C1092       C  0.36547638  0.60897318  0.28927683    -0.13900
H1093       H  0.33951697  0.61526097  0.32154760     0.12230
H1094       H  0.37965399  0.66328565  0.30554727     0.12230
H1095       H  0.40167575  0.64152938  0.27005136     0.12230
H1096       H  0.36182435  0.59362196  0.28623868     0.12230
C1097       C  0.48404457  0.59793439  0.37737424    -0.13900
C1098       C  0.48727238  0.59168726  0.33836026     0.08250
C1099       C  0.50657011  0.59066685  0.32474812    -0.13900
C1100       C  0.52227471  0.59322916  0.35102137    -0.13900
C1101       C  0.51889553  0.59666932  0.39132051     0.08250
C1102       C  0.49975300  0.60038818  0.40365463    -0.13900
H1103       H  0.46940824  0.59913424  0.38860266     0.12230
H1104       H  0.50955339  0.58631893  0.29449948     0.12230
H1105       H  0.53681050  0.59006138  0.34084871     0.12230
H1106       H  0.49678879  0.60295716  0.43475662     0.12230
C1107       C  0.49549678  0.60015386  0.15140248    -0.13900
C1108       C  0.47621321  0.59631765  0.13903293     0.08250
C1109       C  0.47267737  0.59140898  0.09923529    -0.13900
C1110       C  0.48825578  0.58779710  0.07384035    -0.13900
C1111       C  0.50763903  0.58921365  0.08773120     0.08250
C1112       C  0.51108092  0.59665770  0.12598434    -0.13900
H1113       H  0.49862118  0.60373907  0.18216596     0.12230
H1114       H  0.45805216  0.58801933  0.08909163     0.12230
H1115       H  0.48507920  0.58252429  0.04413682     0.12230
H1116       H  0.52577837  0.59821264  0.13740387     0.12230
C1117       C  0.49733291  0.48887652  0.18530774    -0.13900
C1118       C  0.49725152  0.47438867  0.21460976     0.08250
C1119       C  0.48138437  0.47247811  0.24010103    -0.13900
C1120       C  0.46663759  0.48629626  0.23906930    -0.13900
C1121       C  0.46812891  0.50223992  0.21331371     0.08250
C1122       C  0.48290337  0.50299733  0.18506610    -0.13900
H1123       H  0.50952833  0.49046551  0.16545862     0.12230
H1124       H  0.48115182  0.46118125  0.26262252     0.12230
H1125       H  0.45530069  0.48569278  0.26112622     0.12230
H1126       H  0.48410682  0.51533487  0.16506854     0.12230
C1127       C  0.50063751  0.40913842  0.41910333    -0.13900
C1128       C  0.48235476  0.40497973  0.40183773     0.08250
C1129       C  0.48135497  0.39974789  0.36161738    -0.13900
C1130       C  0.49819975  0.39975088  0.33857155    -0.13900
C1131       C  0.51615334  0.40574074  0.35496984     0.08250
C1132       C  0.51732715  0.40996509  0.39565741    -0.13900
H1133       H  0.50172860  0.41360466  0.44992269     0.12230
H1134       H  0.46742992  0.39673818  0.34756018     0.12230
H1135       H  0.49682732  0.39706773  0.30694874     0.12230
H1136       H  0.53083004  0.41525081  0.40863542     0.12230
C1137       C  0.49270022  0.40917206  0.16926857    -0.13900
C1138       C  0.51062869  0.40401941  0.15253968     0.08250
C1139       C  0.51115183  0.39851035  0.11248375    -0.13900
C1140       C  0.49423236  0.39922510  0.08901281    -0.13900
C1141       C  0.47674995  0.40625658  0.10480049     0.08250
C1142       C  0.47598496  0.41073354  0.14536786    -0.13900
H1143       H  0.49203317  0.41389527  0.19993974     0.12230
H1144       H  0.52483248  0.39479034  0.09884035     0.12230
H1145       H  0.49530338  0.39629099  0.05748971     0.12230
H1146       H  0.46286742  0.41676524  0.15786984     0.12230
C1147       C  0.49759873  0.48772330  0.43243567    -0.13900
C1148       C  0.49721419  0.47384073  0.46291331     0.08250
C1149       C  0.51318480  0.47169716  0.98865597    -0.13900
C1150       C  0.52848335  0.48496037  0.48694489    -0.13900
C1151       C  0.52740109  0.50058022  0.46027759     0.08250
C1152       C  0.51260319  0.50131244  0.43148493    -0.13900
H1153       H  0.48535058  0.48940505  0.41225576     0.12230
H1154       H  0.51308057  0.46077949  0.01194274     0.12230
H1155       H  0.53985556  0.48439968  0.00941838     0.12230
H1156       H  0.51172631  0.51342109  0.41082602     0.12230
C1157       C  0.39585014  0.49245856  0.11536013    -0.13900
C1158       C  0.41022570  0.49280132  0.08610241     0.08250
C1159       C  0.41979992  0.51064023  0.07850305    -0.13900
C1160       C  0.41608515  0.52738238  0.10115855    -0.13900
C1161       C  0.40295471  0.52670604  0.13275212     0.08250
C1162       C  0.39242168  0.50916984  0.13876289    -0.13900
H1163       H  0.38817677  0.47899884  0.12180780     0.12230
H1164       H  0.43076633  0.51146823  0.05571530     0.12230
H1165       H  0.42466034  0.54041683  0.09586988     0.12230
H1166       H  0.38232284  0.50802297  0.16309956     0.12230
C1167       C  0.41200983  0.52421565  0.39612751    -0.13900
C1168       C  0.40519914  0.52231864  0.35689006     0.08250
C1169       C  0.39646613  0.50453094  0.34490440    -0.13900
C1170       C  0.39706014  0.48823087  0.36958488    -0.13900
C1171       C  0.40563321  0.48967729  0.40716749     0.08250
C1172       C  0.41211675  0.50793239  0.42126253    -0.13900
H1173       H  0.41879797  0.53766963  0.40619571     0.12230
H1174       H  0.39079820  0.50262778  0.31501993     0.12230
H1175       H  0.39206068  0.47421974  0.35835543     0.12230
H1176       H  0.41894735  0.50914438  0.45030432     0.12230
C1177       C  0.88135798  0.36435437  0.32837294    -0.13900
C1178       C  0.86290455  0.37116179  0.33879008     0.08250
C1179       C  0.85723579  0.38991630  0.32667447    -0.13900
C1180       C  0.86969631  0.40156566  0.30395943    -0.13900
C1181       C  0.88803064  0.39458337  0.29248472     0.08250
C1182       C  0.89384750  0.37596671  0.30572950    -0.13900
H1183       H  0.88570725  0.34961970  0.33604100     0.12230
H1184       H  0.84274756  0.39512977  0.33297952     0.12230
H1185       H  0.86481352  0.41591575  0.29483515     0.12230
H1186       H  0.90793601  0.37018434  0.29800826     0.12230
C1187       C  0.63935880  0.38516168  0.17114096    -0.13900
C1188       C  0.63335305  0.36663218  0.15734253     0.08250
C1189       C  0.61483143  0.35982061  0.16831700    -0.13900
C1190       C  0.60269606  0.37114591  0.19223585    -0.13900
C1191       C  0.60866163  0.38967427  0.20604630     0.08250
C1192       C  0.62718275  0.39652573  0.19509205    -0.13900
H1193       H  0.65360579  0.39081353  0.16388171     0.12230
H1194       H  0.60972731  0.34555694  0.15879964     0.12230
H1195       H  0.58847477  0.36542313  0.19948758     0.12230
H1196       H  0.63221483  0.41081220  0.20461833     0.12230
C1197       C  0.75405169  0.34382707  0.03710755    -0.13900
C1198       C  0.73509271  0.34837003  0.02389531     0.08250
C1199       C  0.73271095  0.35636097  0.48584612    -0.13900
C1200       C  0.74868864  0.35794969  0.46026643    -0.13900
C1201       C  0.76744877  0.35189134  0.47236226     0.08250
C1202       C  0.77008834  0.34580053  0.01183083    -0.13900
H1203       H  0.75626266  0.33742287  0.06620663     0.12230
H1204       H  0.71829128  0.35967785  0.47462556     0.12230
H1205       H  0.74607953  0.36230800  0.42976457     0.12230
H1206       H  0.78412772  0.34050602  0.02179314     0.12230
C1207       C  0.74625383  0.35244309  0.27400907    -0.13900
C1208       C  0.76476917  0.34762544  0.25959155     0.08250
C1209       C  0.76739369  0.34612206  0.21841639    -0.13900
C1210       C  0.75125887  0.34698650  0.19268006    -0.13900
C1211       C  0.73248386  0.34927782  0.20803089     0.08250
C1212       C  0.73020996  0.35297391  0.24849863    -0.13900
H1213       H  0.74383031  0.35399579  0.30558325     0.12230
H1214       H  0.78146171  0.34238703  0.20652863     0.12230
H1215       H  0.75319063  0.34381176  0.16144945     0.12230
H1216       H  0.71582623  0.35462139  0.26081899     0.12230
C1217       C  0.84921976  0.25145314  0.50859267    -0.13900
C1218       C  0.83370200  0.25138859  0.03528563     0.08250
C1219       C  0.82317608  0.26875594  0.04075400    -0.13900
C1220       C  0.82693106  0.28530925  0.51751432    -0.13900
C1221       C  0.84087795  0.28462956  0.48744849     0.08250
C1222       C  0.85260533  0.26783935  0.48450986    -0.13900
H1223       H  0.85763508  0.23832099  0.50395975     0.12230
H1224       H  0.81131470  0.26919092  0.06162274     0.12230
H1225       H  0.81735775  0.29777740  0.51991237     0.12230
H1226       H  0.86319171  0.26673462  0.46104421     0.12230
C1227       C  0.84898750  0.23761458  0.25056462    -0.13900
C1228       C  0.84433251  0.23980594  0.21033419     0.08250
C1229       C  0.84149554  0.25871419  0.19499749    -0.13900
C1230       C  0.84129809  0.27500389  0.22034705    -0.13900
C1231       C  0.84408971  0.27258939  0.26141680     0.08250
C1232       C  0.84921788  0.25387917  0.27574319    -0.13900
H1233       H  0.85082318  0.22315862  0.26312448     0.12230
H1234       H  0.83744176  0.26063962  0.16407311     0.12230
H1235       H  0.83729702  0.28911190  0.20830147     0.12230
H1236       H  0.85160087  0.25140741  0.30716959     0.12230
C1237       C  0.73329019  0.22836677  0.10691594    -0.13900
C1238       C  0.74576050  0.22668433  0.13992169     0.08250
C1239       C  0.74205293  0.23736233  0.17455684    -0.13900
C1240       C  0.72806147  0.25195163  0.17373937    -0.13900
C1241       C  0.71792250  0.25577050  0.13828607     0.08250
C1242       C  0.71945276  0.24298066  0.10601894    -0.13900
H1243       H  0.73550915  0.21974693  0.08035225     0.12230
H1244       H  0.75129472  0.23596498  0.20062854     0.12230
H1245       H  0.72670083  0.26148480  0.19924802     0.12230
H1246       H  0.71117919  0.24534163  0.07890106     0.12230
C1247       C  0.75588927  0.23164330  0.35577014    -0.13900
C1248       C  0.73983510  0.23395755  0.38047868     0.08250
C1249       C  0.73869589  0.24971167  0.40672166    -0.13900
C1250       C  0.75290764  0.26405833  0.40597547    -0.13900
C1251       C  0.76846500  0.26229849  0.37979145     0.08250
C1252       C  0.77043490  0.24573025  0.35588390    -0.13900
H1253       H  0.75675345  0.21937136  0.33550790     0.12230
H1254       H  0.72621611  0.25155364  0.42571113     0.12230
H1255       H  0.75145197  0.27683377  0.42474530     0.12230
H1256       H  0.78247241  0.24436087  0.33560066     0.12230
C1257       C  0.65903570  0.27844008  0.46144163    -0.13900
C1258       C  0.65281662  0.27718155  0.00093759     0.08250
C1259       C  0.64502487  0.25934925  0.01442011    -0.13900
C1260       C  0.64534689  0.24262291  0.99022388    -0.13900
C1261       C  0.65274135  0.24365620  0.45162314     0.08250
C1262       C  0.65870890  0.26189117  0.43682498    -0.13900
H1263       H  0.66557648  0.29182141  0.45064961     0.12230
H1264       H  0.64071675  0.25780385  0.04510976     0.12230
H1265       H  0.64112389  0.22864250  0.00257606     0.12230
H1266       H  0.66489948  0.26292680  0.40745159     0.12230
C1267       C  0.65273478  0.23504097  0.21766103    -0.13900
C1268       C  0.65207607  0.23652346  0.25915345     0.08250
C1269       C  0.64939761  0.25501015  0.27644863    -0.13900
C1270       C  0.64893847  0.27189848  0.25291343    -0.13900
C1271       C  0.65063375  0.27056192  0.21149879     0.08250
C1272       C  0.65161847  0.25188573  0.19397805    -0.13900
H1273       H  0.65541373  0.22104046  0.20376199     0.12230
H1274       H  0.64944484  0.25655640  0.30847417     0.12230
H1275       H  0.64841291  0.28606562  0.26723188     0.12230
H1276       H  0.65335191  0.25042285  0.16218597     0.12230
C1277       C  0.74871406  0.16650169  0.44349904    -0.13900
C1278       C  0.73066946  0.16153570  0.45999199     0.08250
C1279       C  0.72964138  0.15697845  0.00042845    -0.13900
C1280       C  0.74627428  0.15832075  0.02447560    -0.13900
C1281       C  0.76390828  0.16509554  0.00870916     0.08250
C1282       C  0.76516105  0.16867912  0.46786928    -0.13900
H1283       H  0.74969249  0.17045784  0.41243254     0.12230
H1284       H  0.71580648  0.15342967  0.01373651     0.12230
H1285       H  0.74492857  0.15578936  0.05608191     0.12230
H1286       H  0.77855028  0.17412059  0.45526197     0.12230
C1287       C  0.76613904  0.15717526  0.25990735    -0.13900
C1288       C  0.76531110  0.15639859  0.21824798     0.08250
C1289       C  0.74691708  0.15431960  0.19972264    -0.13900
C1290       C  0.72973813  0.15502508  0.22206639    -0.13900
C1291       C  0.73061972  0.15695600  0.26354019     0.08250
C1292       C  0.74901489  0.15716703  0.28225427    -0.13900
H1293       H  0.77997030  0.15918055  0.27504938     0.12230
H1294       H  0.74571906  0.15422508  0.16762837     0.12230
H1295       H  0.71582748  0.15548613  0.20676024     0.12230
H1296       H  0.75013109  0.15926191  0.31409582     0.12230
C1297       C  0.10500615  0.87341646  0.43771534    -0.13900
C1298       C  0.11131186  0.89194327  0.45081104     0.08250
C1299       C  0.12996104  0.89839221  0.43993827    -0.13900
C1300       C  0.14194591  0.88666139  0.41658376    -0.13900
C1301       C  0.13561566  0.86815574  0.40340208     0.08250
C1302       C  0.11698396  0.86169342  0.41434700    -0.13900
H1303       H  0.09065037  0.86805033  0.44497502     0.12230
H1304       H  0.13524455  0.91266028  0.44901427     0.12230
H1305       H  0.15629867  0.89202629  0.40929654     0.12230
H1306       H  0.11169089  0.84743178  0.40525250     0.12230
C1307       C  0.08801179  0.98693709  0.35153819    -0.13900
C1308       C  0.08876414  0.98960539  0.39280136     0.08250
C1309       C  0.09183074  0.00843823  0.40827984    -0.13900
C1310       C  0.09223785  0.02463445  0.38292158    -0.13900
C1311       C  0.09032016  0.02208216  0.34174088     0.08250
C1312       C  0.08917224  0.00306208  0.32611469    -0.13900
H1313       H  0.08529041  0.97255634  0.33913567     0.12230
H1314       H  0.09204972  0.01079346  0.44009895     0.12230
H1315       H  0.09273503  0.03919903  0.39553985     0.12230
H1316       H  0.08719278  0.00082665  0.29447154     0.12230
C1317       C  0.10089534  0.99024721  0.13031420    -0.13900
C1318       C  0.09727917  0.99111873  0.08920054     0.08250
C1319       C  0.09524626  0.00963777  0.07150998    -0.13900
C1320       C  0.09496135  0.02671138  0.09479229    -0.13900
C1321       C  0.09734540  0.02577293  0.13626043     0.08250
C1322       C  0.10132573  0.00742622  0.15346249    -0.13900
H1323       H  0.10187402  0.97619804  0.14497534     0.12230
H1324       H  0.09181327  0.01074338  0.04012171     0.12230
H1325       H  0.09129893  0.04047283  0.08076999     0.12230
H1326       H  0.10255742  0.00609642  0.18543824     0.12230
C1327       C  0.86401842  0.11125931  0.04143911    -0.13900
C1328       C  0.88265323  0.11746908  0.02998400     0.08250
C1329       C  0.88874385  0.13647533  0.04034386    -0.13900
C1330       C  0.87653445  0.14894621  0.06145501    -0.13900
C1331       C  0.85788421  0.14276922  0.07282431     0.08250
C1332       C  0.85179624  0.12374393  0.06257030    -0.13900
H1333       H  0.85891673  0.09664668  0.53447242     0.12230
H1334       H  0.90307856  0.14169986  0.03253407     0.12230
H1335       H  0.88166306  0.16354699  0.06844447     0.12230
H1336       H  0.83745287  0.11854775  0.07039078     0.12230
C1337       C  0.99835153  0.10753366  0.15159594    -0.13900
C1338       C  0.01692401  0.10497144  0.13539418     0.08250
C1339       C  0.01848348  0.10296486  0.09399455    -0.13900
C1340       C  0.00177095  0.10217570  0.06969381    -0.13900
C1341       C  0.98317164  0.10264105  0.08651351     0.08250
C1342       C  0.98162272  0.10599610  0.12750416    -0.13900
H1343       H  0.99665943  0.10842200  0.18349349     0.12230
H1344       H  0.03253375  0.10032168  0.08086881     0.12230
H1345       H  0.00336262  0.09914768  0.03831986     0.12230
H1346       H  0.96747139  0.10602601  0.14128542     0.12230
C1347       C  0.97471209  0.09886014  0.34709061    -0.13900
C1348       C  0.97778427  0.09942513  0.38837117     0.08250
C1349       C  0.99688664  0.10135991  0.40305936    -0.13900
C1350       C  0.01271212  0.10112304  0.37718276    -0.13900
C1351       C  0.00971601  0.09936377  0.33605745     0.08250
C1352       C  0.99056309  0.09906166  0.32109552    -0.13900
H1353       H  0.96019113  0.09667679  0.33512651     0.12230
H1354       H  0.99966204  0.10113483  0.43478644     0.12230
H1355       H  0.02732245  0.10082637  0.38946425     0.12230
H1356       H  0.98791231  0.09711709  0.28957394     0.12230
C1357       C  0.98696281  0.00888751  0.54529269    -0.13900
C1358       C  0.97536490  0.01148885  0.51131491     0.08250
C1359       C  0.97704608  0.99889408  0.47876460    -0.13900
C1360       C  0.99156475  0.98505852  0.47847002    -0.13900
C1361       C  0.00444585  0.98372548  0.51076761     0.08250
C1362       C  0.00155652  0.99496132  0.54501702    -0.13900
H1363       H  0.98566175  0.01845759  0.57076416     0.12230
H1364       H  0.96780466  0.00043618  0.45270711     0.12230
H1365       H  0.99327279  0.97604847  0.45226844     0.12230
H1366       H  0.01128952  0.99387317  0.57040719     0.12230
C1367       C  0.87004312  0.89872268  0.17106701    -0.13900
C1368       C  0.88790191  0.89167792  0.18586755     0.08250
C1369       C  0.89418001  0.87309953  0.17366928    -0.13900
C1370       C  0.88236428  0.86142797  0.14924149    -0.13900
C1371       C  0.86418762  0.86816699  0.13608311     0.08250
C1372       C  0.85829225  0.88704181  0.14651502    -0.13900
H1373       H  0.86490153  0.91310497  0.17917105     0.12230
H1374       H  0.90798516  0.86733339  0.18386663     0.12230
H1375       H  0.88680686  0.84658524  0.14288470     0.12230
H1376       H  0.84396240  0.89218723  0.13808285     0.12230
C1377       C  0.98538745  0.90255413  0.10757166    -0.13900
C1378       C  0.98616671  0.90676369  0.14835964     0.08250
C1379       C  0.00447890  0.90882053  0.16691534    -0.13900
C1380       C  0.02154425  0.90872795  0.14438252    -0.13900
C1381       C  0.02069716  0.90574484  0.10309693     0.08250
C1382       C  0.00251437  0.90161418  0.08534323    -0.13900
H1383       H  0.97147456  0.90113794  0.09247586     0.12230
H1384       H  0.00547638  0.91240743  0.19820934     0.12230
H1385       H  0.03523920  0.91243475  0.15870770     0.12230
H1386       H  0.00131094  0.89982197  0.05344496     0.12230
C1387       C  0.99467345  0.90169976  0.33670264    -0.13900
C1388       C  0.97626763  0.90676381  0.35133600     0.08250
C1389       C  0.97454604  0.91102383  0.39192326    -0.13900
C1390       C  0.99105448  0.91155427  0.41671518    -0.13900
C1391       C  0.00966409  0.90844107  0.40115834     0.08250
C1392       C  0.01129465  0.90289235  0.36122887    -0.13900
H1393       H  0.99652226  0.89903791  0.30525325     0.12230
H1394       H  0.96069248  0.91557991  0.40369023     0.12230
H1395       H  0.98949249  0.91631207  0.44720459     0.12230
H1396       H  0.02550389  0.90089241  0.34834565     0.12230
C1397       C  0.00184992  0.98677534  0.26268362    -0.13900
C1398       C  0.99000812  0.98404442  0.22906210     0.08250
C1399       C  0.99286953  0.99518805  0.19477862    -0.13900
C1400       C  0.00660396  0.01001332  0.19518934    -0.13900
C1401       C  0.01747363  0.01364583  0.22987022     0.08250
C1402       C  0.01555125  0.00154724  0.26309532    -0.13900
H1403       H  0.00003590  0.97797566  0.28913456     0.12230
H1404       H  0.98383621  0.99315833  0.16853900     0.12230
H1405       H  0.00804694  0.01916213  0.16913897     0.12230
H1406       H  0.02416251  0.00389081  0.28981182     0.12230
C1407       C  0.90610693  0.00755805  0.32041022    -0.13900
C1408       C  0.90205513  0.98878708  0.33525627     0.08250
C1409       C  0.89583712  0.98708562  0.37473328    -0.13900
C1410       C  0.89504573  0.00373515  0.39949458    -0.13900
C1411       C  0.90083684  0.02226194  0.38540542     0.08250
C1412       C  0.90565435  0.02403254  0.34517352    -0.13900
H1413       H  0.91136803  0.00924869  0.29038892     0.12230
H1414       H  0.89318837  0.97277340  0.38732320     0.12230
H1415       H  0.89191018  0.00177879  0.43069127     0.12230
H1416       H  0.91068959  0.03792918  0.33371210     0.12230
C1417       C  0.90285485  0.98638821  0.10026952    -0.13900
C1418       C  0.90394477  0.98798597  0.14175340     0.08250
C1419       C  0.90235552  0.00652564  0.15937460    -0.13900
C1420       C  0.90169667  0.02336212  0.13573719    -0.13900
C1421       C  0.90187322  0.02183740  0.09415340     0.08250
C1422       C  0.90142507  0.00316200  0.07667315    -0.13900
H1423       H  0.90425898  0.97225357  0.08608946     0.12230
H1424       H  0.90346904  0.00810812  0.19132989     0.12230
H1425       H  0.90225809  0.03757873  0.14988983     0.12230
H1426       H  0.90188992  0.00157519  0.04469010     0.12230
C1427       C  0.39479838  0.87421623  0.05762392    -0.13900
C1428       C  0.38897816  0.89328610  0.04757217     0.08250
C1429       C  0.37123093  0.90028545  0.06226625    -0.13900
C1430       C  0.35925117  0.88820971  0.08502378    -0.13900
C1431       C  0.36484350  0.86900433  0.09372404     0.08250
C1432       C  0.38276954  0.86216952  0.08021147    -0.13900
H1433       H  0.40847337  0.86842149  0.04733880     0.12230
H1434       H  0.36643813  0.91499679  0.05569390     0.12230
H1435       H  0.34510360  0.89346523  0.09382418     0.12230
H1436       H  0.38696461  0.84712412  0.08530904     0.12230
C1437       C  0.40375588  0.98313195  0.34893387    -0.13900
C1438       C  0.40086629  0.98387806  0.39017184     0.08250
C1439       C  0.39642072  0.00211422  0.40734824    -0.13900
C1440       C  0.39699846  0.01939599  0.38462424    -0.13900
C1441       C  0.40125424  0.01870229  0.34395535     0.08250
C1442       C  0.40373068  0.00029792  0.32608870    -0.13900
H1443       H  0.40761012  0.96945822  0.33488683     0.12230
H1444       H  0.39466057  0.00331226  0.43917628     0.12230
H1445       H  0.39562470  0.03337625  0.39941158     0.12230
H1446       H  0.40758584  0.99936228  0.29503352     0.12230
C1447       C  0.41213636  0.99984602  0.16888932    -0.13900
C1448       C  0.40925909  0.01865211  0.15334130     0.08250
C1449       C  0.40564941  0.02094392  0.11261711    -0.13900
C1450       C  0.40598641  0.00469128  0.08739515    -0.13900
C1451       C  0.41070384  0.98611841  0.10246929     0.08250
C1452       C  0.41313204  0.98369442  0.14354283    -0.13900
H1453       H  0.41538495  0.99791353  0.20019057     0.12230
H1454       H  0.40390013  0.03540685  0.10004455     0.12230
H1455       H  0.40438481  0.00694000  0.05569161     0.12230
H1456       H  0.41693395  0.96954755  0.15569469     0.12230
C1457       C  0.60485888  0.13695430  0.44669548    -0.13900
C1458       C  0.61109955  0.11835713  0.45917837     0.08250
C1459       C  0.62936060  0.11174589  0.44652734    -0.13900
C1460       C  0.64099538  0.12335998  0.42198952    -0.13900
C1461       C  0.63469815  0.14191316  0.40934181     0.08250
C1462       C  0.61648336  0.14855768  0.42216017    -0.13900
H1463       H  0.59079894  0.14247319  0.45535041     0.12230
H1464       H  0.63456401  0.09741425  0.45500704     0.12230
H1465       H  0.65503880  0.11783663  0.41323801     0.12230
H1466       H  0.61124153  0.16286144  0.41358381     0.12230
C1467       C  0.50381117  0.10739499  0.09783685    -0.13900
C1468       C  0.52152392  0.10027594  0.11323889     0.08250
C1469       C  0.52249526  0.09490689  0.15342147    -0.13900
C1470       C  0.50583067  0.09555594  0.17704128    -0.13900
C1471       C  0.48774296  0.10081918  0.16050446     0.08250
C1472       C  0.48696280  0.10724310  0.12099775    -0.13900
H1473       H  0.50250357  0.11102572  0.06661693     0.12230
H1474       H  0.53577211  0.08885027  0.16571073     0.12230
H1475       H  0.50668362  0.09007233  0.20717986     0.12230
H1476       H  0.47313195  0.11091605  0.10734993     0.12230
C1477       C  0.49475619  0.10035260  0.42501755    -0.13900
C1478       C  0.51289389  0.10344112  0.40705996     0.08250
C1479       C  0.51334848  0.10786861  0.36640419    -0.13900
C1480       C  0.49609970  0.10813595  0.34375695    -0.13900
C1481       C  0.47819307  0.10314324  0.36097036     0.08250
C1482       C  0.47762995  0.09976592  0.40204605    -0.13900
H1483       H  0.49402284  0.09651760  0.45617149     0.12230
H1484       H  0.52712560  0.11003444  0.35175191     0.12230
H1485       H  0.49705286  0.11018760  0.31193942     0.12230
H1486       H  0.46416748  0.09532224  0.41583676     0.12230
C1487       C  0.49574865  0.02376034  0.44429144    -0.13900
C1488       C  0.49979353  0.03364522  0.47990154     0.08250
C1489       C  0.48807605  0.03065768  0.01312107    -0.13900
C1490       C  0.47443515  0.01575777  0.01266742    -0.13900
C1491       C  0.47252368  0.00381872  0.47899612     0.08250
C1492       C  0.48209422  0.00878327  0.44384989    -0.13900
H1493       H  0.50445069  0.02617199  0.41811566     0.12230
H1494       H  0.49062534  0.03864207  0.04050042     0.12230
H1495       H  0.46663067  0.01256530  0.03968934     0.12230
H1496       H  0.48044331  0.99999148  0.41725310     0.12230
C1497       C  0.62454069  0.89537664  0.32241395    -0.13900
C1498       C  0.61462511  0.89175126  0.28626608     0.08250
C1499       C  0.61648319  0.87352531  0.26799415    -0.13900
C1500       C  0.62803676  0.85915006  0.28565585    -0.13900
C1501       C  0.63803617  0.86278408  0.32175988     0.08250
C1502       C  0.63614490  0.88102879  0.34002310    -0.13900
H1503       H  0.62315948  0.90934854  0.33726502     0.12230
H1504       H  0.60857478  0.87021377  0.24081640     0.12230
H1505       H  0.62929073  0.84516074  0.27083231     0.12230
H1506       H  0.64399640  0.88436120  0.36725454     0.12230
C1507       C  0.51668909  0.90705611  0.38643040    -0.13900
C1508       C  0.51370456  0.90901579  0.34527243     0.08250
C1509       C  0.49467673  0.90666399  0.32995195    -0.13900
C1510       C  0.47881571  0.90514331  0.35538075    -0.13900
C1511       C  0.48164942  0.90540769  0.39658928     0.08250
C1512       C  0.50074989  0.90520927  0.41188348    -0.13900
H1513       H  0.53109872  0.90876178  0.39923600     0.12230
H1514       H  0.49179035  0.90787496  0.29838021     0.12230
H1515       H  0.46424423  0.90574496  0.34294441     0.12230
H1516       H  0.50325741  0.90593859  0.44366790     0.12230
C1517       C  0.50820033  0.90092786  0.14122163    -0.13900
C1518       C  0.52611334  0.91001261  0.13285420     0.08250
C1519       C  0.52843793  0.91915278  0.09595016    -0.13900
C1520       C  0.51248329  0.92127020  0.07010054    -0.13900
C1521       C  0.49414409  0.91379590  0.08028363     0.08250
C1522       C  0.49236838  0.90263853  0.11492485    -0.13900
H1523       H  0.50590443  0.89422629  0.16993861     0.12230
H1524       H  0.54186520  0.92673110  0.08925795     0.12230
H1525       H  0.51411146  0.92996968  0.04347307     0.12230
H1526       H  0.47832972  0.89689608  0.12348629     0.12230
C1527       C  0.49112153  0.00927209  0.28418094    -0.13900
C1528       C  0.49216788  0.02512932  0.25808895     0.08250
C1529       C  0.50789741  0.02736619  0.23243373    -0.13900
C1530       C  0.52233676  0.01331042  0.23210587    -0.13900
C1531       C  0.52057869  0.99694040  0.25661862     0.08250
C1532       C  0.50521523  0.99502779  0.28304768    -0.13900
H1533       H  0.47891912  0.00740178  0.30392539     0.12230
H1534       H  0.50875491  0.03968355  0.21230878     0.12230
H1535       H  0.53425527  0.01465422  0.21149706     0.12230
H1536       H  0.50393499  0.98230948  0.30203153     0.12230
C1537       C  0.60386706  0.01463902  0.11837366    -0.13900
C1538       C  0.59068573  0.01425358  0.08634295     0.08250
C1539       C  0.58171934  0.99630341  0.07636249    -0.13900
C1540       C  0.58444884  0.97957649  0.09990531    -0.13900
C1541       C  0.59585347  0.98051656  0.13461326     0.08250
C1542       C  0.60624947  0.99799407  0.14251009    -0.13900
H1543       H  0.61092780  0.02820919  0.12687598     0.12230
H1544       H  0.57155177  0.99554588  0.05162063     0.12230
H1545       H  0.57585681  0.96662680  0.09347797     0.12230
H1546       H  0.61482835  0.99932639  0.16953924     0.12230
C1547       C  0.59692603  0.00633097  0.34159147    -0.13900
C1548       C  0.59279127  0.98749889  0.35635529     0.08250
C1549       C  0.58966098  0.98516477  0.39720820    -0.13900
C1550       C  0.58910614  0.00155037  0.42211828    -0.13900
C1551       C  0.59124535  0.02041334  0.40627666     0.08250
C1552       C  0.59577798  0.02267488  0.36621557    -0.13900
H1553       H  0.59932991  0.00869563  0.31023122     0.12230
H1554       H  0.58638740  0.97089313  0.40937745     0.12230
H1555       H  0.58531793  0.99962691  0.45301985     0.12230
H1556       H  0.59725534  0.03714247  0.35351116     0.12230
C1557       C  0.13678678  0.38403575  0.08101676    -0.13900
C1558       C  0.13659384  0.36444075  0.06913575     0.08250
C1559       C  0.12463046  0.35877521  0.03677556    -0.13900
C1560       C  0.11315882  0.37242609  0.01650862    -0.13900
C1561       C  0.11344066  0.39202192  0.02823792     0.08250
C1562       C  0.12525832  0.39768310  0.06079341    -0.13900
H1563       H  0.14624536  0.38887695  0.10501527     0.12230
H1564       H  0.12438684  0.34371558  0.02679398     0.12230
H1565       H  0.10365308  0.36758829  0.99258151     0.12230
H1566       H  0.12535481  0.41272767  0.07087365     0.12230
C1567       C  0.38021880  0.36196709  0.41009007    -0.13900
C1568       C  0.36177128  0.36845556  0.39809453     0.08250
C1569       C  0.35571862  0.38714074  0.40990318    -0.13900
C1570       C  0.36777749  0.39895881  0.43391464    -0.13900
C1571       C  0.38605808  0.39219893  0.44704516     0.08250
C1572       C  0.39225369  0.37369665  0.43401066    -0.13900
H1573       H  0.38487723  0.34730095  0.40278393     0.12230
H1574       H  0.34120596  0.39212054  0.40249091     0.12230
H1575       H  0.36263050  0.41322959  0.44276745     0.12230
H1576       H  0.40631237  0.36804789  0.44291664     0.12230
C1577       C  0.24336846  0.34516922  0.28200597    -0.13900
C1578       C  0.26291057  0.34479952  0.26940488     0.08250
C1579       C  0.26665183  0.34673823  0.22882031    -0.13900
C1580       C  0.25118443  0.34659497  0.20127125    -0.13900
C1581       C  0.23172342  0.34478639  0.21378207     0.08250
C1582       C  0.22791720  0.34522661  0.25447819    -0.13900
H1583       H  0.24001527  0.34385412  0.31324894     0.12230
H1584       H  0.28144275  0.34642605  0.21817276     0.12230
H1585       H  0.25450139  0.34616376  0.16990623     0.12230
H1586       H  0.21317563  0.34357819  0.26497332     0.12230
C1587       C  0.24967903  0.35226084  0.45334999    -0.13900
C1588       C  0.26861596  0.35018717  0.46922666     0.08250
C1589       C  0.27119476  0.34961993  0.01042832    -0.13900
C1590       C  0.25505981  0.34838273  0.03496426    -0.13900
C1591       C  0.23615091  0.34711819  0.01849687     0.08250
C1592       C  0.23351865  0.35051183  0.47782005    -0.13900
H1593       H  0.24722579  0.35295191  0.42156201     0.12230
H1594       H  0.28559658  0.34831762  0.02343160     0.12230
H1595       H  0.25757706  0.34632145  0.06647956     0.12230
H1596       H  0.21915504  0.34992158  0.46439327     0.12230
C1597       C  0.12680808  0.11166723  0.30999666    -0.13900
C1598       C  0.11025931  0.11905018  0.29014631     0.08250
C1599       C  0.10594711  0.13902417  0.29410222    -0.13900
C1600       C  0.11831467  0.15142229  0.31584413    -0.13900
C1601       C  0.13496262  0.14406866  0.33499538     0.08250
C1602       C  0.13899978  0.12405643  0.33229980    -0.13900
H1603       H  0.13040161  0.09630053  0.30819241     0.12230
H1604       H  0.09323487  0.14517318  0.27967905     0.12230
H1605       H  0.11525943  0.16693929  0.31660789     0.12230
H1606       H  0.15210879  0.11820240  0.34573138     0.12230
C1607       C  0.15436657  0.24552771  0.24514996    -0.13900
C1608       C  0.16721798  0.24785935  0.27734691     0.08250
C1609       C  0.17411927  0.26683461  0.28648623    -0.13900
C1610       C  0.16996382  0.28267965  0.26148933    -0.13900
C1611       C  0.15876311  0.27985482  0.22700074     0.08250
C1612       C  0.15002175  0.26140145  0.22052406    -0.13900
H1613       H  0.14834876  0.23129090  0.23795310     0.12230
H1614       H  0.18372668  0.26925860  0.31170002     0.12230
H1615       H  0.17716956  0.29655123  0.26691041     0.12230
H1616       H  0.14135950  0.25877506  0.19397901     0.12230
C1617       C  0.15419771  0.26764911  0.46917969    -0.13900
C1618       C  0.15505761  0.26637885  0.01050887     0.08250
C1619       C  0.15417692  0.24778054  0.02855329    -0.13900
C1620       C  0.15392504  0.23067969  0.50545604    -0.13900
C1621       C  0.15394990  0.23194021  0.46392570     0.08250
C1622       C  0.15327074  0.25068073  0.44620455    -0.13900
H1623       H  0.15493996  0.28173891  0.45460545     0.12230
H1624       H  0.15508347  0.24642682  0.06056050     0.12230
H1625       H  0.15463687  0.21658615  0.51999145     0.12230
H1626       H  0.15339587  0.25235383  0.41423627     0.12230
C1627       C  0.27013320  0.24827938  0.42511258    -0.13900
C1628       C  0.26464707  0.26788390  0.42110804     0.08250
C1629       C  0.24530826  0.27328104  0.42815470    -0.13900
C1630       C  0.23108175  0.25891211  0.43196293    -0.13900
C1631       C  0.23624710  0.23920730  0.42863026     0.08250
C1632       C  0.25595066  0.23396410  0.42913517    -0.13900
H1633       H  0.28509493  0.24383764  0.42134621     0.12230
H1634       H  0.24083124  0.28841795  0.42645742     0.12230
H1635       H  0.21596336  0.26325247  0.43238512     0.12230
H1636       H  0.26025631  0.21876093  0.42786277     0.12230
C1637       C  0.38003729  0.14885075  0.17298854    -0.13900
C1638       C  0.36147672  0.14209578  0.16143964     0.08250
C1639       C  0.35563350  0.12330284  0.17339954    -0.13900
C1640       C  0.36800238  0.11155826  0.19619500    -0.13900
C1641       C  0.38661386  0.11822796  0.20755742     0.08250
C1642       C  0.39247206  0.13704382  0.19568949    -0.13900
H1643       H  0.38494292  0.16332548  0.16468055     0.12230
H1644       H  0.34135478  0.11769958  0.16558480     0.12230
H1645       H  0.36303612  0.09708882  0.20439784     0.12230
H1646       H  0.40678343  0.14257457  0.20345593     0.12230
C1647       C  0.31701803  0.26490114  0.18985290    -0.13900
C1648       C  0.32939032  0.24864866  0.19359634     0.08250
C1649       C  0.34459809  0.24940240  0.22169207    -0.13900
C1650       C  0.34608235  0.26519355  0.24822177    -0.13900
C1651       C  0.33281154  0.28077378  0.24623760     0.08250
C1652       C  0.31882513  0.28087739  0.21569496    -0.13900
H1653       H  0.30525828  0.26479893  0.16821455     0.12230
H1654       H  0.35431733  0.23710654  0.22528898     0.12230
H1655       H  0.35662541  0.26451783  0.27229379     0.12230
H1656       H  0.30806595  0.29238062  0.21429079     0.12230
C1657       C  0.34912694  0.25173413  0.02842033    -0.13900
C1658       C  0.34833566  0.23293010  0.01142649     0.08250
C1659       C  0.34898921  0.23116740  0.97004275    -0.13900
C1660       C  0.34864483  0.24782583  0.44601878    -0.13900
C1661       C  0.34688728  0.26663098  0.46283102     0.08250
C1662       C  0.34815376  0.26846418  0.50434005    -0.13900
H1663       H  0.34820121  0.25348511  0.06031941     0.12230
H1664       H  0.34806881  0.21688191  0.95622878     0.12230
H1665       H  0.34776931  0.24576535  0.41416731     0.12230
H1666       H  0.34683033  0.28266097  0.51827078     0.12230
C1667       C  0.23508629  0.22350091  0.09505178    -0.13900
C1668       C  0.25192352  0.22718868  0.07309848     0.08250
C1669       C  0.25344041  0.24407663  0.04991667    -0.13900
C1670       C  0.23949550  0.25849813  0.05330250    -0.13900
C1671       C  0.22386493  0.25573123  0.07898308     0.08250
C1672       C  0.22092191  0.23776862  0.09772324    -0.13900
H1673       H  0.23367731  0.21033412  0.11267639     0.12230
H1674       H  0.26630804  0.24703112  0.03261272     0.12230
H1675       H  0.24160437  0.27231210  0.03818343     0.12230
H1676       H  0.20875184  0.23552724  0.11739036     0.12230
C1677       C  0.26558078  0.14424322  0.47453771    -0.13900
C1678       C  0.26505739  0.14949931  0.01462892     0.08250
C1679       C  0.24679891  0.15265646  0.03218710    -0.13900
C1680       C  0.22964946  0.15294136  0.00896140    -0.13900
C1681       C  0.23048827  0.14982467  0.46781547     0.08250
C1682       C  0.24843481  0.14389405  0.45167092    -0.13900
H1683       H  0.27939697  0.14203822  0.46012465     0.12230
H1684       H  0.24605834  0.15715891  0.06298622     0.12230
H1685       H  0.21628803  0.15788254  0.02230923     0.12230
H1686       H  0.24964990  0.14138080  0.42002870     0.10630
C1687       C  0.26768784  0.15959652  0.24903081    -0.13900
C1688       C  0.26443242  0.16234920  0.20856136     0.08250
C1689       C  0.24539746  0.16483864  0.19390698    -0.13900
C1690       C  0.22993149  0.16680939  0.22017661    -0.13900
C1691       C  0.23353190  0.16615767  0.26115234     0.08250
C1692       C  0.25226350  0.16111842  0.27514083    -0.13900
H1693       H  0.28232029  0.15784042  0.26064917     0.12230
H1694       H  0.24282376  0.16726665  0.16249630     0.12230
H1695       H  0.21566816  0.17053736  0.20866735     0.12230
H1696       H  0.25539344  0.16002886  0.30664947     0.12230
Zn1697     Zn  0.29542740  0.20173515  0.64232112     1.49720
Zn1698     Zn  0.30543116  0.16086396  0.61252607     1.49360
Zn1699     Zn  0.30343417  0.19535193  0.55226608     1.49110
Zn1700     Zn  0.33739427  0.19751133  0.61743094     1.49480
O1701       O  0.31124011  0.18837933  0.60541418    -1.84680
O1702       O  0.28710239  0.18537522  0.68740766    -0.75310
O1703       O  0.28902686  0.14946777  0.56678437    -0.75130
O1704       O  0.28245473  0.21488053  0.55524154    -0.74650
O1705       O  0.28580136  0.15708675  0.65543332    -0.75330
O1706       O  0.27119039  0.20843390  0.61530836    -0.74930
O1707       O  0.28907498  0.17384956  0.52317645    -0.75510
O1708       O  0.34764868  0.21291406  0.56963264    -0.74900
O1709       O  0.33075674  0.14834443  0.63067102    -0.75660
O1710       O  0.32470096  0.20883344  0.52293493    -0.75050
O1711       O  0.35211042  0.17323642  0.63583847    -0.75510
O1712       O  0.33848966  0.21879690  0.66088514    -0.75420
O1713       O  0.30735464  0.22663464  0.66247752    -0.75210
C1714       C  0.28046900  0.16816593  0.68337898     0.76580
C1715       C  0.28263628  0.15740126  0.53499122     0.77070
C1716       C  0.26922825  0.21585115  0.58108876     0.76030
C1717       C  0.34045145  0.21670015  0.53534328     0.76400
C1718       C  0.34751089  0.15519005  0.64071582     0.77540
C1719       C  0.32498924  0.23046090  0.67102935     0.76590
Zn1720     Zn  0.17956805  0.18718299  0.81589834     1.49720
Zn1721     Zn  0.21559897  0.18720001  0.87308139     1.49360
Zn1722     Zn  0.18393336  0.21697734  0.88008048     1.49110
Zn1723     Zn  0.17633567  0.17653948  0.91428210     1.49480
O1724       O  0.18879091  0.19037522  0.86985668    -1.84680
O1725       O  0.20131609  0.17555367  0.78130473    -0.75310
O1726       O  0.22830206  0.21093077  0.89297137    -0.75130
O1727       O  0.18259560  0.23428768  0.83377665    -0.74650
O1728       O  0.22618737  0.17872191  0.82333558    -0.75330
O1729       O  0.16955480  0.21325745  0.79130652    -0.74930
O1730       O  0.20390578  0.22827812  0.91700242    -0.75510
O1731       O  0.16471628  0.19857528  0.95144817    -0.74900
O1732       O  0.22348120  0.16748150  0.91071931    -0.75660
O1733       O  0.15781151  0.21772575  0.90133988    -0.75050
O1734       O  0.19786377  0.16101234  0.94780881    -0.75510
O1735       O  0.15563898  0.15889016  0.88500059    -0.75420
O1736       O  0.15794089  0.16802365  0.82088645    -0.75210
C1737       C  0.21937235  0.17366266  0.78983254     0.76580
C1738       C  0.22200641  0.22516437  0.91327655     0.77070
C1739       C  0.17343933  0.23086007  0.80173789     0.76030
C1740       C  0.15800908  0.21478780  0.93819381     0.76400
C1741       C  0.21608916  0.15924691  0.94051872     0.77540
C1742       C  0.15024196  0.15778928  0.84825332     0.76590
Zn1743     Zn  0.31694311  0.28963359  0.86677962     1.49720
Zn1744     Zn  0.32125171  0.32282822  0.92381300     1.49360
Zn1745     Zn  0.32081815  0.33149741  0.82484627     1.49110
Zn1746     Zn  0.28605249  0.32183062  0.87498547     1.49480
O1747       O  0.31265293  0.31671794  0.87061059    -1.84680
O1748       O  0.33879394  0.28014903  0.90020959    -0.75310
O1749       O  0.34082538  0.34345550  0.91542944    -0.75130
O1750       O  0.33108687  0.31101569  0.78342686    -0.74650
O1751       O  0.33288883  0.29860911  0.95252754    -0.75330
O1752       O  0.32267415  0.28266070  0.81168167    -0.74930
O1753       O  0.34114173  0.35139165  0.85038541    -0.75510
O1754       O  0.27294792  0.32668134  0.82472976    -0.74900
O1755       O  0.29876184  0.33409209  0.95632761    -0.75660
O1756       O  0.29616149  0.34399179  0.79581040    -0.75050
O1757       O  0.28170504  0.34552798  0.90590632    -0.75510
O1758       O  0.27339077  0.29985430  0.90229487    -0.75420
O1759       O  0.29383367  0.27579447  0.88839752    -0.75210
C1760       C  0.33982994  0.28299444  0.93739608     0.76580
C1761       C  0.34712061  0.35368670  0.88664550     0.77070
C1762       C  0.32906100  0.29231334  0.78233569     0.76030
C1763       C  0.27830314  0.33843589  0.79793809     0.76400
C1764       C  0.28431853  0.34381648  0.94287509     0.77540
C1765       C  0.27814780  0.28196021  0.90366302     0.76590
Zn1766     Zn  0.17442266  0.28959808  0.60884001     1.49720
Zn1767     Zn  0.21257157  0.31427371  0.61294147     1.49360
Zn1768     Zn  0.18037736  0.32141030  0.55373600     1.49110
Zn1769     Zn  0.17581589  0.33072188  0.65161557     1.49480
O1770       O  0.18548180  0.31513644  0.60829907    -1.84680
O1771       O  0.19443280  0.27048896  0.59512812    -0.75310
O1772       O  0.22506338  0.33229973  0.57660976    -0.75130
O1773       O  0.17152499  0.29681989  0.52258049    -0.74650
O1774       O  0.22152532  0.28833326  0.59767705    -0.75330
O1775       O  0.15350320  0.28450739  0.57010249    -0.74930
O1776       O  0.20372460  0.33465335  0.52735897    -0.75510
O1777       O  0.15612515  0.34947295  0.62138497    -0.74900
O1778       O  0.22249273  0.32250886  0.66471511    -0.75660
O1779       O  0.15924349  0.34022651  0.55749808    -0.75050
O1780       O  0.19979543  0.34401097  0.68144162    -0.75510
O1781       O  0.16437484  0.31102022  0.69391559    -0.75420
O1782       O  0.16540528  0.28302584  0.66040150    -0.75210
C1783       C  0.21260050  0.27239527  0.59093208     0.76580
C1784       C  0.22054081  0.33815423  0.54217272     0.77070
C1785       C  0.15963571  0.28380694  0.53486642     0.76030
C1786       C  0.15130420  0.35058201  0.58418975     0.76400
C1787       C  0.21703505  0.33696376  0.68531482     0.77540
C1788       C  0.16231560  0.29234861  0.69204802     0.76590
Zn1789     Zn  0.56956441  0.93336127  0.80395828     1.49720
Zn1790     Zn  0.57412349  0.96720604  0.74866420     1.49360
Zn1791     Zn  0.57771970  0.92755480  0.70439777     1.49110
Zn1792     Zn  0.53742955  0.93807935  0.74327232     1.49480
O1793       O  0.56485625  0.94061357  0.74881667    -1.84680
O1794       O  0.57815436  0.95678904  0.83819108    -0.75310
O1795       O  0.58579670  0.97579304  0.69953131    -0.75130
O1796       O  0.59684388  0.90871840  0.73458457    -0.74650
O1797       O  0.59235476  0.97426565  0.79176238    -0.75330
O1798       O  0.59088522  0.91475746  0.79919024    -0.74930
O1799       O  0.59005502  0.94858709  0.66519833    -0.75510
O1800       O  0.52982779  0.92635814  0.69276591    -0.74900
O1801       O  0.55178108  0.98430246  0.75431092    -0.75660
O1802       O  0.55687659  0.91381497  0.66786235    -0.75050
O1803       O  0.52645159  0.96407418  0.74720871    -0.75510
O1804       O  0.52424516  0.92243161  0.78452055    -0.75420
O1805       O  0.54640422  0.92012414  0.83201344    -0.75210
C1806       C  0.58813348  0.97165116  0.82783797     0.76580
C1807       C  0.59103192  0.96729099  0.66821138     0.77070
C1808       C  0.60014699  0.90593921  0.77200839     0.76030
C1809       C  0.53845254  0.91655800  0.66643292     0.76400
C1810       C  0.53369723  0.98095346  0.75243227     0.77540
C1811       C  0.52913685  0.91709366  0.81919550     0.76590
Zn1812     Zn  0.55514177  0.09728361  0.00431126     1.49720
Zn1813     Zn  0.55170571  0.06394232  0.94727339     1.49360
Zn1814     Zn  0.58857864  0.06242540  0.00336313     1.49110
Zn1815     Zn  0.54901321  0.05672012  0.54221919     1.49480
O1816       O  0.56153328  0.07006949  0.00053951    -1.84680
O1817       O  0.53276789  0.10303352  0.96563080    -0.75310
O1818       O  0.56894984  0.04552328  0.91832988    -0.75130
O1819       O  0.60322113  0.08753123  0.98870498    -0.74650
O1820       O  0.54313283  0.08683570  0.91353589    -0.75330
O1821       O  0.58017323  0.11081854  0.98700607    -0.74930
O1822       O  0.59365576  0.04225175  0.96077628    -0.75510
O1823       O  0.56548533  0.03453172  0.56238326    -0.74900
O1824       O  0.52702066  0.04989532  0.95427035    -0.75660
O1825       O  0.59556678  0.04543047  0.55306426    -0.75050
O1826       O  0.52510577  0.04575045  0.51961368    -0.75510
O1827       O  0.53948648  0.07469933  0.58498158    -0.75420
O1828       O  0.54256800  0.10416745  0.55752324    -0.75210
C1829       C  0.53086435  0.09822455  0.92930579     0.76580
C1830       C  0.58461217  0.03724954  0.92925646     0.77070
C1831       C  0.59759628  0.10499773  0.98050138     0.76030
C1832       C  0.58378407  0.03249377  0.56653559     0.76400
C1833       C  0.51810032  0.04400038  0.98478040     0.77540
C1834       C  0.53610472  0.09299324  0.58484361     0.76590
Zn1835     Zn  0.44418103  0.91329743  0.49888038     1.49720
Zn1836     Zn  0.44513071  0.95040213  0.94284686     1.49360
Zn1837     Zn  0.41028014  0.94842249  0.49845532     1.49110
Zn1838     Zn  0.45005271  0.95356969  0.53744201     1.49480
O1839       O  0.43721122  0.94076436  0.49362977    -1.84680
O1840       O  0.45809601  0.90322315  0.94875494    -0.75310
O1841       O  0.42374959  0.95928293  0.90609999    -0.75130
O1842       O  0.39643475  0.92369775  0.51656950    -0.74650
O1843       O  0.46254340  0.93146104  0.91698745    -0.75330
O1844       O  0.41936855  0.90032455  0.51761098    -0.74930
O1845       O  0.40054139  0.96445262  0.94997283    -0.75510
O1846       O  0.43224931  0.96130660  0.58171979    -0.74900
O1847       O  0.45952840  0.97493818  0.95153195    -0.75660
O1848       O  0.40729324  0.96827225  0.54237936    -0.75050
O1849       O  0.45961139  0.97846917  0.51713630    -0.75510
O1850       O  0.47315157  0.93878290  0.55817830    -0.75420
O1851       O  0.46547498  0.90845311  0.54086473    -0.75210
C1852       C  0.46620742  0.91341746  0.92166573     0.76580
C1853       C  0.40811239  0.96772741  0.91610308     0.77070
C1854       C  0.40215730  0.90634951  0.52515501     0.76030
C1855       C  0.41666390  0.97067205  0.57472756     0.76400
C1856       C  0.46310258  0.98487035  0.98259796     0.77540
C1857       C  0.47666101  0.92056927  0.55863083     0.76590
Zn1858     Zn  0.40857761  0.06185323  0.74897848     1.49720
Zn1859     Zn  0.44302012  0.09717569  0.75292713     1.49360
Zn1860     Zn  0.44537711  0.05844875  0.80181296     1.49110
Zn1861     Zn  0.44858876  0.06034443  0.70473436     1.49480
O1862       O  0.43595755  0.06956551  0.75290949    -1.84680
O1863       O  0.39493207  0.08712617  0.73419753    -0.75310
O1864       O  0.45647080  0.10567257  0.80504663    -0.75130
O1865       O  0.42672738  0.04023954  0.82829812    -0.74650
O1866       O  0.41794276  0.11068138  0.73477941    -0.75330
O1867       O  0.39873134  0.04513586  0.79657752    -0.74930
O1868       O  0.45764391  0.07778867  0.83892532    -0.75510
O1869       O  0.47094050  0.04502718  0.72236400    -0.74900
O1870       O  0.46543636  0.10275805  0.71443280    -0.75660
O1871       O  0.46699318  0.04194174  0.78764805    -0.75050
O1872       O  0.46047135  0.08024518  0.66852393    -0.75510
O1873       O  0.43238315  0.04184651  0.67327529    -0.75420
O1874       O  0.40415330  0.04207305  0.70442656    -0.75210
C1875       C  0.40049515  0.10475829  0.72750584     0.76580
C1876       C  0.46251079  0.09559906  0.83460990     0.77070
C1877       C  0.40888919  0.03612902  0.82278460     0.76030
C1878       C  0.47600299  0.03830852  0.75594026     0.76400
C1879       C  0.46988432  0.09491690  0.68151904     0.77540
C1880       C  0.41522982  0.03544952  0.67764131     0.76590
Zn1881     Zn  0.90762988  0.94624971  0.74018052     1.49720
Zn1882     Zn  0.94445368  0.94657367  0.68782952     1.49360
Zn1883     Zn  0.94601408  0.95114850  0.78547471     1.49110
Zn1884     Zn  0.94226434  0.91161992  0.74175933     1.49480
O1885       O  0.93482815  0.93885195  0.74024979    -1.84680
O1886       O  0.90271222  0.96746233  0.69886608    -0.75310
O1887       O  0.96587956  0.96461306  0.69941232    -0.75130
O1888       O  0.92794954  0.96978421  0.81219779    -0.74650
O1889       O  0.92576537  0.96222103  0.65476725    -0.75330
O1890       O  0.89851010  0.96078404  0.79138665    -0.74930
O1891       O  0.96733028  0.96660363  0.76546849    -0.75510
O1892       O  0.95438451  0.90318742  0.79545839    -0.74900
O1893       O  0.95757267  0.92583988  0.65466682    -0.75660
O1894       O  0.95842097  0.93244886  0.82333546    -0.75050
O1895       O  0.96528825  0.90661602  0.70483697    -0.75510
O1896       O  0.91787191  0.89840905  0.71949408    -0.75420
O1897       O  0.89449451  0.92144508  0.72018042    -0.75210
C1898       C  0.91075765  0.97136232  0.66596009     0.76580
C1899       C  0.97362171  0.97090040  0.73131942     0.77070
C1900       C  0.90959639  0.97177854  0.81266485     0.76030
C1901       C  0.96154317  0.91415284  0.82277557     0.76400
C1902       C  0.96847562  0.91286200  0.66993613     0.77540
C1903       C  0.90064355  0.90436004  0.71076181     0.76590
Zn1904     Zn  0.90506541  0.06059752  0.49109523     1.49720
Zn1905     Zn  0.94085539  0.06023924  0.54615898     1.49360
Zn1906     Zn  0.94429769  0.05563484  0.94962412     1.49110
Zn1907     Zn  0.93929538  0.09607870  0.49022555     1.49480
O1908       O  0.93230969  0.06852008  0.99298147    -1.84680
O1909       O  0.90052780  0.04004754  0.53383044    -0.75310
O1910       O  0.95670109  0.03672475  0.53833936    -0.75130
O1911       O  0.92597229  0.04125392  0.91349951    -0.74650
O1912       O  0.91963751  0.05092344  0.58213930    -0.75330
O1913       O  0.89689062  0.04495302  0.94019769    -0.74930
O1914       O  0.95999858  0.03500880  0.97266654    -0.75510
O1915       O  0.95283991  0.10339093  0.93745471    -0.74900
O1916       O  0.95863704  0.07904059  0.57480672    -0.75660
O1917       O  0.96129126  0.07346578  0.91842945    -0.75050
O1918       O  0.96070530  0.10320995  0.53137916    -0.75510
O1919       O  0.91387636  0.10944307  0.50471004    -0.75420
O1920       O  0.89092138  0.08583285  0.50535484    -0.75210
C1921       C  0.90695112  0.03887997  0.56930981     0.76580
C1922       C  0.96323487  0.02857794  0.00741216     0.77070
C1923       C  0.90791166  0.03738818  0.91398234     0.76030
C1924       C  0.96277503  0.09193179  0.91555716     0.76400
C1925       C  0.96632207  0.09495473  0.56340828     0.77540
C1926       C  0.89643983  0.10358187  0.51143787     0.76590
Zn1927     Zn  0.05499931  0.91263976  0.99446101     1.49720
Zn1928     Zn  0.08917089  0.94831678  0.99206298     1.49360
Zn1929     Zn  0.04800842  0.95149695  0.95070671     1.49110
Zn1930     Zn  0.05342991  0.95025563  0.54781711     1.49480
O1931       O  0.06172245  0.94049943  0.99642321    -1.84680
O1932       O  0.08029703  0.89941095  0.97813261    -0.75310
O1933       O  0.09328765  0.96727599  0.94623391    -0.75130
O1934       O  0.03284730  0.93284756  0.91619889    -0.74650
O1935       O  0.10316109  0.92306571  0.97786923    -0.75330
O1936       O  0.03366043  0.90615215  0.95305945    -0.74930
O1937       O  0.06438002  0.96870281  0.91667300    -0.75510
O1938       O  0.03032167  0.96610924  0.53832441    -0.74900
O1939       O  0.09921892  0.96578949  0.53911553    -0.75660
O1940       O  0.02745278  0.96763476  0.97253517    -0.75050
O1941       O  0.07226770  0.96865868  0.57422871    -0.75510
O1942       O  0.04338310  0.92988886  0.58497714    -0.75420
O1943       O  0.04073860  0.90403911  0.54522380    -0.75210
C1944       C  0.09765481  0.90539635  0.97106712     0.76580
C1945       C  0.08202865  0.97404236  0.91944500     0.77070
C1946       C  0.02671229  0.91577961  0.92391823     0.76030
C1947       C  0.02162169  0.97178060  0.00712117     0.76400
C1948       C  0.08964689  0.97378497  0.56715754     0.77540
C1949       C  0.03655501  0.91299307  0.57733560     0.76590
Zn1950     Zn  0.05416004  0.09835494  0.74193090     1.49720
Zn1951     Zn  0.08900711  0.06307035  0.74205934     1.49360
Zn1952     Zn  0.05038020  0.05882198  0.78561826     1.49110
Zn1953     Zn  0.05240095  0.06049512  0.68843127     1.49480
O1954       O  0.06163347  0.07070924  0.73864942    -1.84680
O1955       O  0.07952036  0.11166040  0.75995125    -0.75310
O1956       O  0.09327768  0.04204602  0.78414274    -0.75130
O1957       O  0.03142276  0.07517093  0.81497953    -0.74650
O1958       O  0.10240230  0.08813468  0.76110281    -0.75330
O1959       O  0.03326409  0.10369586  0.78443998    -0.74930
O1960       O  0.06903843  0.04758271  0.82505294    -0.75510
O1961       O  0.03456382  0.03928053  0.70052985    -0.74900
O1962       O  0.09891387  0.04789491  0.69245097    -0.75660
O1963       O  0.03558310  0.03641840  0.76634787    -0.75050
O1964       O  0.07217662  0.04694880  0.65514117    -0.75510
O1965       O  0.03706870  0.07962931  0.65708913    -0.75420
O1966       O  0.03943894  0.10754987  0.69077922    -0.75210
C1967       C  0.09677687  0.10566394  0.76839652     0.76580
C1968       C  0.08442257  0.03851761  0.81627667     0.77070
C1969       C  0.02579740  0.09265335  0.81069701     0.76030
C1970       C  0.02995742  0.03063798  0.73232705     0.76400
C1971       C  0.08956684  0.04166351  0.66187260     0.77540
C1972       C  0.03256888  0.09745022  0.66174619     0.76590
Zn1973     Zn  0.65583716  0.19759727  0.86021685     1.49720
Zn1974     Zn  0.68993518  0.16300009  0.86084529     1.49360
Zn1975     Zn  0.69620428  0.20199298  0.81797818     1.49110
Zn1976     Zn  0.69176079  0.19881712  0.91442935     1.49480
O1977       O  0.68304224  0.19043185  0.86155068    -1.84680
O1978       O  0.64219926  0.17254957  0.87875644    -0.75310
O1979       O  0.70453330  0.15378903  0.81056159    -0.75130
O1980       O  0.67804321  0.21865579  0.78597247    -0.74650
O1981       O  0.66524185  0.14924513  0.87947771    -0.75330
O1982       O  0.64836263  0.21095169  0.80732582    -0.74930
O1983       O  0.71120609  0.18296000  0.78503317    -0.75510
O1984       O  0.71526418  0.21442519  0.90621981    -0.74900
O1985       O  0.71150964  0.15919634  0.90129213    -0.75660
O1986       O  0.71682816  0.21843819  0.84055817    -0.75050
O1987       O  0.70053732  0.17723354  0.95041494    -0.75510
O1988       O  0.67428868  0.21744368  0.94267111    -0.75420
O1989       O  0.65012022  0.22002415  0.89922401    -0.75210
C1990       C  0.64794902  0.15513606  0.88705021     0.76580
C1991       C  0.71391238  0.16460876  0.78632528     0.77070
C1992       C  0.65965686  0.22066916  0.78457530     0.76030
C1993       C  0.72320077  0.22140989  0.87553386     0.76400
C1994       C  0.71294760  0.16541825  0.93670950     0.77540
C1995       C  0.65890669  0.22578613  0.93059626     0.76590
Zn1996     Zn  0.83583392  0.19983504  0.61121471     1.49720
Zn1997     Zn  0.79495614  0.20594123  0.57721825     1.49360
Zn1998     Zn  0.80179899  0.16515772  0.61271570     1.49110
Zn1999     Zn  0.80001637  0.19958798  0.67076666     1.49480
O2000       O  0.80876031  0.19238451  0.61840631    -1.84680
O2001       O  0.83966664  0.22078323  0.56806462    -0.75310
O2002       O  0.78662596  0.18873640  0.53157401    -0.75130
O2003       O  0.82687913  0.15093189  0.59928296    -0.74650
O2004       O  0.80915499  0.23003499  0.55888715    -0.75330
O2005       O  0.84954546  0.17462610  0.59580984    -0.74930
O2006       O  0.78324741  0.16156303  0.56668701    -0.75510
O2007       O  0.79246205  0.17720546  0.70662184    -0.74900
O2008       O  0.77042211  0.21449682  0.59988738    -0.75660
O2009       O  0.78457754  0.15614082  0.65911526    -0.75050
O2010       O  0.77488687  0.21330559  0.66523075    -0.75510
O2011       O  0.81891854  0.21822204  0.69525626    -0.75420
O2012       O  0.84594634  0.21529815  0.65967298    -0.75210
C2013       C  0.82727997  0.23310202  0.55505766     0.76580
C2014       C  0.77925394  0.17181643  0.53626944     0.77070
C2015       C  0.84415021  0.15676957  0.59117682     0.76030
C2016       C  0.78223249  0.16286786  0.69410752     0.76400
C2017       C  0.76449867  0.21725389  0.63496799     0.77540
C2018       C  0.83636374  0.22311510  0.68782653     0.76590
Zn2019     Zn  0.68890477  0.30891647  0.66812784     1.49720
Zn2020     Zn  0.65555831  0.31090611  0.61138685     1.49360
Zn2021     Zn  0.68951164  0.34549849  0.61192291     1.49110
Zn2022     Zn  0.69612794  0.30518688  0.57412721     1.49480
O2023       O  0.68254778  0.31809934  0.61487277    -1.84680
O2024       O  0.66614974  0.30140445  0.70216972    -0.75310
O2025       O  0.64165080  0.33578867  0.62885946    -0.75130
O2026       O  0.71036554  0.35135833  0.65347247    -0.74650
O2027       O  0.65052659  0.28876452  0.65085948    -0.75330
O2028       O  0.70758212  0.32662379  0.69578661    -0.74930
O2029       O  0.66429878  0.35963506  0.62802233    -0.75510
O2030       O  0.71728945  0.32245482  0.55222633    -0.74900
O2031       O  0.64869921  0.29785663  0.55789351    -0.75660
O2032       O  0.70514434  0.35227777  0.56067768    -0.75050
O2033       O  0.67814591  0.29493618  0.53162242    -0.75510
O2034       O  0.70732730  0.28138187  0.59758295    -0.75420
O2035       O  0.70231377  0.28372790  0.66255729    -0.75210
C2036       C  0.65529743  0.28810952  0.68744194     0.76580
C2037       C  0.64705388  0.35347716  0.63596250     0.77070
C2038       C  0.71568051  0.34241172  0.68480642     0.76030
C2039       C  0.71815529  0.34085724  0.54658101     0.76400
C2040       C  0.65994169  0.29148428  0.53080673     0.77540
C2041       C  0.70843805  0.27450272  0.63256654     0.76590
Zn2042     Zn  0.82196928  0.29333019  0.87026615     1.49720
Zn2043     Zn  0.78492640  0.32161781  0.86785446     1.49360
Zn2044     Zn  0.82269657  0.33499387  0.91219954     1.49110
Zn2045     Zn  0.82003405  0.32734592  0.81180926     1.49480
O2046       O  0.81268817  0.32002158  0.86599679    -1.84680
O2047       O  0.79952835  0.27556649  0.87246042    -0.75310
O2048       O  0.77453369  0.33598213  0.91299744    -0.75130
O2049       O  0.83383406  0.31517958  0.95401575    -0.74650
O2050       O  0.77412597  0.29554464  0.87346767    -0.75330
O2051       O  0.83589360  0.28763866  0.91949088    -0.74930
O2052       O  0.80005443  0.34818379  0.94506590    -0.75510
O2053       O  0.84031744  0.34749536  0.82088754    -0.74900
O2054       O  0.77340532  0.33387466  0.82083063    -0.75660
O2055       O  0.84293662  0.35419994  0.88637320    -0.75050
O2056       O  0.79749929  0.33923598  0.77923079    -0.75510
O2057       O  0.83100332  0.30426027  0.77876118    -0.75420
O2058       O  0.83762538  0.28316598  0.82646805    -0.75210
C2059       C  0.78145688  0.27862605  0.87495460     0.76580
C2060       C  0.78160915  0.34567649  0.94164960     0.77070
C2061       C  0.83766798  0.29689800  0.95180382     0.76030
C2062       C  0.84791852  0.35687715  0.84991377     0.76400
C2063       C  0.77953919  0.34025653  0.78797439     0.77540
C2064       C  0.83782633  0.28782394  0.79014635     0.76590
Zn2065     Zn  0.44163733  0.41123414  0.99844204     1.49720
Zn2066     Zn  0.40956668  0.44625041  0.00036380     1.49360
Zn2067     Zn  0.45086924  0.45169253  0.53418762     1.49110
Zn2068     Zn  0.44371353  0.44377361  0.94056178     1.49480
O2069       O  0.43620259  0.43844393  0.99516998    -1.84680
O2070       O  0.41670430  0.39862874  0.97808695    -0.75310
O2071       O  0.40449609  0.46179790  0.55247755    -0.75130
O2072       O  0.46143959  0.43303252  0.57480609    -0.74650
O2073       O  0.39400379  0.42213054  0.98121336    -0.75330
O2074       O  0.45352693  0.40340806  0.55183949    -0.74930
O2075       O  0.43475240  0.47330556  0.55764274    -0.75510
O2076       O  0.46845357  0.45814493  0.94319047    -0.74900
O2077       O  0.40455070  0.46792221  0.96144959    -0.75660
O2078       O  0.47407430  0.46254743  0.50786124    -0.75050
O2079       O  0.42543138  0.46200951  0.91306757    -0.75510
O2080       O  0.45143965  0.42017696  0.90817474    -0.75420
O2081       O  0.46378522  0.40566882  0.96096537    -0.75210
C2082       C  0.39945697  0.40489129  0.97092347     0.76580
C2083       C  0.41664114  0.47485126  0.56475563     0.77070
C2084       C  0.46235585  0.41446647  0.57683493     0.76030
C2085       C  0.47906675  0.46406953  0.97175655     0.76400
C2086       C  0.41176972  0.47199591  0.92794261     0.77540
C2087       C  0.46461773  0.40975155  0.92423972     0.76590
Zn2088     Zn  0.41993642  0.53949962  0.74030688     1.49720
Zn2089     Zn  0.42856022  0.57471044  0.79755623     1.49360
Zn2090     Zn  0.46009062  0.56257559  0.73881242     1.49110
Zn2091     Zn  0.42208253  0.57964725  0.69939690     1.49480
O2092       O  0.43270314  0.56488556  0.74428962    -1.84680
O2093       O  0.40900395  0.53096975  0.79036017    -0.75310
O2094       O  0.45336363  0.58694263  0.82210356    -0.75130
O2095       O  0.46715488  0.53550948  0.72691524    -0.74650
O2096       O  0.41881490  0.55291944  0.83469112    -0.75330
O2097       O  0.43917017  0.51908583  0.72630600    -0.74930
O2098       O  0.47549247  0.57324854  0.78389949    -0.75510
O2099       O  0.44417037  0.59380259  0.66820790    -0.74900
O2100       O  0.40776235  0.59455024  0.79094156    -0.75660
O2101       O  0.46915418  0.57771035  0.69426001    -0.75050
O2102       O  0.40154740  0.59825109  0.72556962    -0.75510
O2103       O  0.41248607  0.55845538  0.65857518    -0.75420
O2104       O  0.39924179  0.53724642  0.69923030    -0.75210
C2105       C  0.41081578  0.53655068  0.82603241     0.76580
C2106       C  0.47112080  0.58380690  0.81344884     0.77070
C2107       C  0.45744672  0.51986957  0.72208398     0.76030
C2108       C  0.46229540  0.58958479  0.66913417     0.76400
C2109       C  0.39825053  0.60227584  0.76233399     0.77540
C2110       C  0.40400055  0.54203227  0.66440670     0.76590
Zn2111     Zn  0.55206956  0.40945466  0.75029582     1.49720
Zn2112     Zn  0.58453077  0.44448109  0.75302096     1.49360
Zn2113     Zn  0.54964980  0.44274981  0.69221371     1.49110
Zn2114     Zn  0.54333591  0.45033098  0.78533040     1.49480
O2115       O  0.55765193  0.43682577  0.74664722    -1.84680
O2116       O  0.57730641  0.39638265  0.73290160    -0.75310
O2117       O  0.59014567  0.46573792  0.71331586    -0.75130
O2118       O  0.54152835  0.41934812  0.65938979    -0.74650
O2119       O  0.60002368  0.42004233  0.73702727    -0.75330
O2120       O  0.53002731  0.40375071  0.71138512    -0.74930
O2121       O  0.56830145  0.46062829  0.66528467    -0.75510
O2122       O  0.52027990  0.46181390  0.75908880    -0.74900
O2123       O  0.58989542  0.46029606  0.80489180    -0.75660
O2124       O  0.52520146  0.45774157  0.69441494    -0.75050
O2125       O  0.55977198  0.47176180  0.80933389    -0.75510
O2126       O  0.53238820  0.43199572  0.82555394    -0.75420
O2127       O  0.53939009  0.40217470  0.80308577    -0.75210
C2128       C  0.59473538  0.40258723  0.72742370     0.76580
C2129       C  0.58262856  0.47008112  0.67989851     0.77070
C2130       C  0.52868331  0.40844674  0.67497029     0.76030
C2131       C  0.51503761  0.46379863  0.72305340     0.76400
C2132       C  0.57791207  0.47332030  0.81686830     0.77540
C2133       C  0.53086487  0.41347636  0.82759179     0.76590
Zn2134     Zn  0.53485975  0.56070647  0.98875349     1.49720
Zn2135     Zn  0.57277626  0.57776618  0.95085247     1.49360
Zn2136     Zn  0.56642844  0.57282519  0.54888254     1.49110
Zn2137     Zn  0.57525463  0.53799597  0.99122494     1.49480
O2138       O  0.56223565  0.56308713  0.99545838    -1.84680
O2139       O  0.52575556  0.57675261  0.94509311    -0.75310
O2140       O  0.59330810  0.59618335  0.97717170    -0.75130
O2141       O  0.54152387  0.58456962  0.57268677    -0.74650
O2142       O  0.55102100  0.59255807  0.92005597    -0.75330
O2143       O  0.51932471  0.57051079  0.53396318    -0.74930
O2144       O  0.58664854  0.59341393  0.54233685    -0.75510
O2145       O  0.58580535  0.52904220  0.54165712    -0.74900
O2146       O  0.58206607  0.55682089  0.91006449    -0.75660
O2147       O  0.57661740  0.55096043  0.58604342    -0.75050
O2148       O  0.59614235  0.53634193  0.95131584    -0.75510
O2149       O  0.55621536  0.51764063  0.97508661    -0.75420
O2150       O  0.52814258  0.53373332  0.97463214    -0.75210
C2151       C  0.53278421  0.58886631  0.92079434     0.76580
C2152       C  0.59619075  0.60090195  0.51379880     0.77070
C2153       C  0.52373912  0.58119112  0.56358388     0.76030
C2154       C  0.58426834  0.53451507  0.57736692     0.76400
C2155       C  0.59095250  0.54071052  0.91632585     0.77540
C2156       C  0.53797138  0.51827907  0.96973291     0.76590
Zn2157     Zn  0.67763060  0.82955105  0.90259516     1.49720
Zn2158     Zn  0.68135779  0.81920406  0.80793920     1.49360
Zn2159     Zn  0.71232304  0.80735755  0.86666957     1.49110
Zn2160     Zn  0.66938037  0.78823621  0.86504308     1.49480
O2161       O  0.68539443  0.81179425  0.86151129    -1.84680
O2162       O  0.65761642  0.84767428  0.87324781    -0.75310
O2163       O  0.70473123  0.83300992  0.78558674    -0.75130
O2164       O  0.72389810  0.82153987  0.91144638    -0.74650
O2165       O  0.65992892  0.83770840  0.80982024    -0.75330
O2166       O  0.70192225  0.84373917  0.92782042    -0.74930
O2167       O  0.72734365  0.81841757  0.82201056    -0.75510
O2168       O  0.68713966  0.76549362  0.87275503    -0.74900
O2169       O  0.67489038  0.79504528  0.77480618    -0.75660
O2170       O  0.71659346  0.77937302  0.87402441    -0.75050
O2171       O  0.65384956  0.78173240  0.81599183    -0.75510
O2172       O  0.65242244  0.78815827  0.91225334    -0.75420
O2173       O  0.66811832  0.81084636  0.94702165    -0.75210
C2174       C  0.65241831  0.84849341  0.83632787     0.76580
C2175       C  0.72251095  0.82997841  0.79417185     0.77070
C2176       C  0.71918409  0.83678048  0.93034874     0.76030
C2177       C  0.70551053  0.76451861  0.87607232     0.76400
C2178       C  0.66236411  0.78188247  0.78279606     0.77540
C2179       C  0.65878229  0.79462383  0.94523370     0.76590
Zn2180     Zn  0.82198867  0.82574852  0.66781010     1.49720
Zn2181     Zn  0.82291930  0.83025881  0.56803421     1.49360
Zn2182     Zn  0.82181823  0.79059706  0.61703689     1.49110
Zn2183     Zn  0.78624615  0.81973302  0.61750670     1.49480
O2184       O  0.81364719  0.81729978  0.61585659    -1.84680
O2185       O  0.84214615  0.84510249  0.65678095    -0.75310
O2186       O  0.83413004  0.80892496  0.52931853    -0.75130
O2187       O  0.84340851  0.78425483  0.65437351    -0.74650
O2188       O  0.84349518  0.85016294  0.59067359    -0.75330
O2189       O  0.83226919  0.80325327  0.70151945    -0.74930
O2190       O  0.82990515  0.78190967  0.56497818    -0.75510
O2191       O  0.77507389  0.79496729  0.63610190    -0.74900
O2192       O  0.79912958  0.84278391  0.53705282    -0.75660
O2193       O  0.79990810  0.77430297  0.63522436    -0.75050
O2194       O  0.77465988  0.82776116  0.56718602    -0.75510
O2195       O  0.77696946  0.83942552  0.65502516    -0.75420
O2196       O  0.80038361  0.83768663  0.70010740    -0.75210
C2197       C  0.84918198  0.85367072  0.62660096     0.76580
C2198       C  0.83486151  0.79025855  0.53308161     0.77070
C2199       C  0.84106905  0.78780412  0.69088964     0.76030
C2200       C  0.78224269  0.77816485  0.64225548     0.76400
C2201       C  0.78094101  0.83864896  0.53970378     0.77540
C2202       C  0.78315650  0.84237606  0.68999487     0.76590
Zn2203     Zn  0.69474391  0.66098292  0.60527172     1.49720
Zn2204     Zn  0.66186765  0.69667341  0.60463547     1.49360
Zn2205     Zn  0.69516670  0.69427408  0.66735578     1.49110
Zn2206     Zn  0.70456766  0.70393850  0.57970578     1.49480
O2207       O  0.68861939  0.68840275  0.61297756    -1.84680
O2208       O  0.66916573  0.64772766  0.59072204    -0.75310
O2209       O  0.65344982  0.71220354  0.65400178    -0.75130
O2210       O  0.71350429  0.67507779  0.69095669    -0.74650
O2211       O  0.64713076  0.67191669  0.58853679    -0.75330
O2212       O  0.71259196  0.64977198  0.64975156    -0.74930
O2213       O  0.67175001  0.69792042  0.69967714    -0.75510
O2214       O  0.72575892  0.71427032  0.61320096    -0.74900
O2215       O  0.65932122  0.71778964  0.56150136    -0.75660
O2216       O  0.71066040  0.71870673  0.67047004    -0.75050
O2217       O  0.69015459  0.72694208  0.55640365    -0.75510
O2218       O  0.71734293  0.68817612  0.53744868    -0.75420
O2219       O  0.71240103  0.65782414  0.55879054    -0.75210
C2220       C  0.65198650  0.65401673  0.58303351     0.76580
C2221       C  0.66024563  0.71148983  0.68935707     0.77070
C2222       C  0.71978017  0.65855056  0.68006116     0.76030
C2223       C  0.72500792  0.72152577  0.64783522     0.76400
C2224       C  0.67216662  0.72990609  0.54960365     0.77540
C2225       C  0.72031214  0.66988255  0.53525952     0.76590
Zn2226     Zn  0.80153405  0.69702339  0.91129637     1.49720
Zn2227     Zn  0.80536807  0.66202725  0.85849382     1.49360
Zn2228     Zn  0.79766813  0.70118166  0.81712718     1.49110
Zn2229     Zn  0.83789803  0.69735656  0.86029314     1.49480
O2230       O  0.81105454  0.68948210  0.85984858    -1.84680
O2231       O  0.79764674  0.67408763  0.94718603    -0.75310
O2232       O  0.79246344  0.65288133  0.80630117    -0.75130
O2233       O  0.77329717  0.71254954  0.83826410    -0.74650
O2234       O  0.78426186  0.65732355  0.89802954    -0.75330
O2235       O  0.77517750  0.70713537  0.90334401    -0.74930
O2236       O  0.78808985  0.68159641  0.77654802    -0.75510
O2237       O  0.84509774  0.71011966  0.80764746    -0.74900
O2238       O  0.82989871  0.64925239  0.87908540    -0.75660
O2239       O  0.81533263  0.72151419  0.79424223    -0.75050
O2240       O  0.85221657  0.67335255  0.88052934    -0.75510
O2241       O  0.84275768  0.72012636  0.89867701    -0.75420
O2242       O  0.81659426  0.71897051  0.93639703    -0.75210
C2243       C  0.78437112  0.66276255  0.93407114     0.76580
C2244       C  0.78545516  0.66315904  0.77791599     0.77070
C2245       C  0.76597730  0.71296680  0.87280970     0.76030
C2246       C  0.83377169  0.72250239  0.79095456     0.76400
C2247       C  0.84680881  0.65582136  0.88851464     0.77540
C2248       C  0.83255276  0.72694407  0.92671951     0.76590
Zn2249     Zn  0.94465869  0.44514232  0.80517012     1.49720
Zn2250     Zn  0.94345477  0.41397692  0.74255552     1.49360
Zn2251     Zn  0.91155932  0.44882791  0.74305070     1.49110
Zn2252     Zn  0.95250481  0.45530347  0.71259301     1.49480
O2253       O  0.93798805  0.44101364  0.74903797    -1.84680
O2254       O  0.95791482  0.42206832  0.83264040    -0.75310
O2255       O  0.91885495  0.40090482  0.76301432    -0.75130
O2256       O  0.90729434  0.47019868  0.78293827    -0.74650
O2257       O  0.96712803  0.40805958  0.77689531    -0.75330
O2258       O  0.92383466  0.45948767  0.83542793    -0.74930
O2259       O  0.89630673  0.42461898  0.76033611    -0.75510
O2260       O  0.93586698  0.47586043  0.68581593    -0.74900
O2261       O  0.95392356  0.40725020  0.68785831    -0.75660
O2262       O  0.90581029  0.46402201  0.69092154    -0.75050
O2263       O  0.96577081  0.43701407  0.67552128    -0.75510
O2264       O  0.97346445  0.46796433  0.74277821    -0.75420
O2265       O  0.96640741  0.46363313  0.80660730    -0.75210
C2266       C  0.97010651  0.41186031  0.81336228     0.76580
C2267       C  0.90166204  0.40724869  0.76992079     0.77070
C2268       C  0.91250535  0.47187796  0.81907400     0.76030
C2269       C  0.91772055  0.47696283  0.67801007     0.76400
C2270       C  0.96530021  0.41868303  0.66902057     0.77540
C2271       C  0.97710204  0.47037728  0.77950584     0.76590
Zn2272     Zn  0.92024401  0.58205834  0.53932417     1.49720
Zn2273     Zn  0.92918766  0.57879199  0.93858762     1.49360
Zn2274     Zn  0.96109205  0.57569543  0.00016568     1.49110
Zn2275     Zn  0.92689797  0.54433237  0.99178436     1.49480
O2276       O  0.93404133  0.57129354  0.99368930    -1.84680
O2277       O  0.90094490  0.60115058  0.51088630    -0.75310
O2278       O  0.95303020  0.59124848  0.91025392    -0.75130
O2279       O  0.96803963  0.58601879  0.55190381    -0.74650
O2280       O  0.90829289  0.59818237  0.94574835    -0.75330
O2281       O  0.94018880  0.59476059  0.57945303    -0.74930
O2282       O  0.97384379  0.59241107  0.96044880    -0.75510
O2283       O  0.95004986  0.52941665  0.97979396    -0.74900
O2284       O  0.91996782  0.55518312  0.90416290    -0.75660
O2285       O  0.97358194  0.55069251  0.99474004    -0.75050
O2286       O  0.90702615  0.53767703  0.95190122    -0.75510
O2287       O  0.91764101  0.53351331  0.54139683    -0.75420
O2288       O  0.90814500  0.55954525  0.57490422    -0.75210
C2289       C  0.89852752  0.60567486  0.97394447     0.76580
C2290       C  0.96977078  0.59578279  0.92436736     0.77070
C2291       C  0.95876729  0.59332824  0.58043720     0.76030
C2292       C  0.96782458  0.53375597  0.98483287     0.76400
C2293       C  0.91053071  0.54010089  0.91549216     0.77540
C2294       C  0.91010221  0.54095013  0.57182954     0.76590
Zn2295     Zn  0.06785993  0.43304867  0.54463631     1.49720
Zn2296     Zn  0.07669646  0.42762797  0.94386853     1.49360
Zn2297     Zn  0.03527008  0.43390277  0.98413020     1.49110
Zn2298     Zn  0.06715301  0.46701651  0.98702973     1.49480
O2299       O  0.06242517  0.43957570  0.98902964    -1.84680
O2300       O  0.08901249  0.41427634  0.54010799    -0.75310
O2301       O  0.05617041  0.41341893  0.90466081    -0.75130
O2302       O  0.02282889  0.41937732  0.52694199    -0.74650
O2303       O  0.09572523  0.40867878  0.97559797    -0.75330
O2304       O  0.04468166  0.42106872  0.57506802    -0.74930
O2305       O  0.02907632  0.41991275  0.93699065    -0.75510
O2306       O  0.04294973  0.48097119  0.98582946    -0.74900
O2307       O  0.09091333  0.44999591  0.90852328    -0.75660
O2308       O  0.02055252  0.45776748  0.98054197    -0.75050
O2309       O  0.08071092  0.47588797  0.94130244    -0.75510
O2310       O  0.08188983  0.47814197  0.53087505    -0.75420
O2311       O  0.07752416  0.45625682  0.57792310    -0.75210
C2312       C  0.09868240  0.40575748  0.51317313     0.76580
C2313       C  0.03754650  0.41258262  0.90761011     0.77070
C2314       C  0.02760319  0.41665928  0.56278494     0.76030
C2315       C  0.02544883  0.47555443  0.98227227     0.76400
C2316       C  0.08987975  0.46868664  0.91272219     0.77540
C2317       C  0.08296228  0.47320489  0.56686961     0.76590
Zn2318     Zn  0.05733319  0.56099938  0.80944948     1.49720
Zn2319     Zn  0.04614137  0.55260953  0.71788238     1.49360
Zn2320     Zn  0.05410297  0.59478427  0.74395774     1.49110
Zn2321     Zn  0.08877228  0.56138073  0.74430983     1.49480
O2322       O  0.06177728  0.56783146  0.75372788    -1.84680
O2323       O  0.03875976  0.53896770  0.81164433    -0.75310
O2324       O  0.02326037  0.56718776  0.69512555    -0.75130
O2325       O  0.03872203  0.60476931  0.79175387    -0.74650
O2326       O  0.03588264  0.53094439  0.74793354    -0.75330
O2327       O  0.04378686  0.58234271  0.83872771    -0.74930
O2328       O  0.03340188  0.59785320  0.70004144    -0.75510
O2329       O  0.10272678  0.58688293  0.73094828    -0.74900
O2330       O  0.06144385  0.53924473  0.67606306    -0.75660
O2331       O  0.07879501  0.60909764  0.72749873    -0.75050
O2332       O  0.09177108  0.54402550  0.69720024    -0.75510
O2333       O  0.09858682  0.54180440  0.78641422    -0.75420
O2334       O  0.07994658  0.54800357  0.83811742    -0.75210
C2335       C  0.03316269  0.52746950  0.78435457     0.76580
C2336       C  0.02087022  0.58529481  0.68826646     0.77070
C2337       C  0.03535865  0.59771544  0.82613494     0.76030
C2338       C  0.09654309  0.60407512  0.72235189     0.76400
C2339       C  0.07953980  0.53587700  0.67413857     0.77540
C2340       C  0.09295751  0.53775319  0.82142010     0.76590
Zn2341     Zn  0.32186223  0.82603976  0.56433209     1.49720
Zn2342     Zn  0.28622720  0.82201028  0.61937536     1.49360
Zn2343     Zn  0.32171885  0.79144488  0.62101712     1.49110
Zn2344     Zn  0.32467254  0.83244881  0.66508336     1.49480
O2345       O  0.31393245  0.81860472  0.61789595    -1.84680
O2346       O  0.29992064  0.83801670  0.53095772    -0.75310
O2347       O  0.27401940  0.79671706  0.62777908    -0.75130
O2348       O  0.33513701  0.77999736  0.57522645    -0.74650
O2349       O  0.27500767  0.83341205  0.57088850    -0.75330
O2350       O  0.33238046  0.80327559  0.53035593    -0.74930
O2351       O  0.29838227  0.77545664  0.62645236    -0.75510
O2352       O  0.33628490  0.81182290  0.70491946    -0.74900
O2353       O  0.27677591  0.83807752  0.66289280    -0.75660
O2354       O  0.33700208  0.78499470  0.66793026    -0.75050
O2355       O  0.30269581  0.84626797  0.69864306    -0.75510
O2356       O  0.34492316  0.85161496  0.64029583    -0.75420
O2357       O  0.34226423  0.84573715  0.57449362    -0.75210
C2358       C  0.28181277  0.83915628  0.53811080     0.76580
C2359       C  0.28053997  0.77947047  0.62967865     0.77070
C2360       C  0.33695382  0.78582372  0.53985481     0.76030
C2361       C  0.33995606  0.79358696  0.70066869     0.76400
C2362       C  0.28422127  0.84627702  0.69305671     0.77540
C2363       C  0.34990118  0.85467104  0.60402939     0.76590
Zn2364     Zn  0.15710120  0.81209298  0.85844673     1.49720
Zn2365     Zn  0.19168589  0.84665519  0.86115462     1.49360
Zn2366     Zn  0.19430653  0.80613355  0.90385548     1.49110
Zn2367     Zn  0.19469762  0.80917755  0.80906135     1.49480
O2368       O  0.18429300  0.81918030  0.85740892    -1.84680
O2369       O  0.14354128  0.83718320  0.87533419    -0.75310
O2370       O  0.21128267  0.85113447  0.90591948    -0.75130
O2371       O  0.17445739  0.79842878  0.94437276    -0.74650
O2372       O  0.16660233  0.86062399  0.87599716    -0.75330
O2373       O  0.15197754  0.79073237  0.89982782    -0.74930
O2374       O  0.21582556  0.82112948  0.92929347    -0.75510
O2375       O  0.20605365  0.78347280  0.82073887    -0.74900
O2376       O  0.20857483  0.85586219  0.81349858    -0.75660
O2377       O  0.20473873  0.78101695  0.88638556    -0.75050
O2378       O  0.21598293  0.82659840  0.78910544    -0.75510
O2379       O  0.17446715  0.80248601  0.76760951    -0.75420
O2380       O  0.14899862  0.79815714  0.80679973    -0.75210
C2381       C  0.14918843  0.85474263  0.88280480     0.76580
C2382       C  0.22037641  0.83911095  0.92800865     0.77070
C2383       C  0.15979117  0.78825433  0.93385710     0.76030
C2384       C  0.20868943  0.77393686  0.85261957     0.76400
C2385       C  0.21934063  0.84484442  0.79223821     0.77540
C2386       C  0.15782637  0.79500364  0.77422409     0.76590
Zn2387     Zn  0.30182744  0.66279931  0.86062008     1.49720
Zn2388     Zn  0.33627024  0.69694654  0.86253690     1.49360
Zn2389     Zn  0.29863896  0.70025630  0.81172660     1.49110
Zn2390     Zn  0.29675125  0.70143603  0.90622262     1.49480
O2391       O  0.30885985  0.69010905  0.86137920    -1.84680
O2392       O  0.32687892  0.64853150  0.84500363    -0.75310
O2393       O  0.34246011  0.71909813  0.82365807    -0.75130
O2394       O  0.29226736  0.67951025  0.77108527    -0.74650
O2395       O  0.34987084  0.67201726  0.84486838    -0.75330
O2396       O  0.28190481  0.65892405  0.81687164    -0.74930
O2397       O  0.31448158  0.72284790  0.79130738    -0.75510
O2398       O  0.27279640  0.71426987  0.88795922    -0.74900
O2399       O  0.34409773  0.71058501  0.91514145    -0.75660
O2400       O  0.27294002  0.71107851  0.82239345    -0.75050
O2401       O  0.31450787  0.72120544  0.93052319    -0.75510
O2402       O  0.28643530  0.68216594  0.94574618    -0.75420
O2403       O  0.28560427  0.65482564  0.90999519    -0.75210
C2404       C  0.34424309  0.65443550  0.83758597     0.76580
C2405       C  0.33171878  0.72848006  0.79933918     0.77070
C2406       C  0.28057721  0.66616294  0.78219430     0.76030
C2407       C  0.26472114  0.71625024  0.85416099     0.76400
C2408       C  0.33292409  0.72249991  0.93324495     0.77540
C2409       C  0.28026710  0.66480738  0.94014388     0.76590
Zn2410     Zn  0.18898809  0.66451791  0.61022815     1.49720
Zn2411     Zn  0.15480475  0.69903807  0.60858445     1.49360
Zn2412     Zn  0.18972462  0.70018486  0.66560443     1.49110
Zn2413     Zn  0.19551740  0.70366746  0.56919254     1.49480
O2414       O  0.18198783  0.69186413  0.61182783    -1.84680
O2415       O  0.16410530  0.65072375  0.62677555    -0.75310
O2416       O  0.14900174  0.72179473  0.64679134    -0.75130
O2417       O  0.20011663  0.67892071  0.70090025    -0.74650
O2418       O  0.14096736  0.67394270  0.62650175    -0.75330
O2419       O  0.20997928  0.66009648  0.65181235    -0.74930
O2420       O  0.17107690  0.71767257  0.69420914    -0.75510
O2421       O  0.21552774  0.72009506  0.59312048    -0.74900
O2422       O  0.14778585  0.71212146  0.55505093    -0.75660
O2423       O  0.21236391  0.71716293  0.65872117    -0.75050
O2424       O  0.17780357  0.72067403  0.53740233    -0.75510
O2425       O  0.21101992  0.68503911  0.53619855    -0.75420
O2426       O  0.20390476  0.65563569  0.55994299    -0.75210
C2427       C  0.14673983  0.65645235  0.63406966     0.76580
C2428       C  0.15665522  0.72687576  0.67983676     0.77070
C2429       C  0.21183700  0.66637204  0.68717110     0.76030
C2430       C  0.22092956  0.72377383  0.62843883     0.76400
C2431       C  0.15945384  0.72244238  0.53426658     0.77540
C2432       C  0.21357989  0.66665686  0.53658496     0.76590
C2433       C  0.26573462  0.66077677  0.50758023    -0.13900
C2434       C  0.26435444  0.65787452  0.96637591     0.08250
C2435       C  0.24582730  0.65409850  0.94960900    -0.13900
C2436       C  0.22894716  0.65505637  0.97294142    -0.13900
C2437       C  0.23035134  0.65912512  0.51374765     0.08250
C2438       C  0.24897810  0.66113472  0.53099125    -0.13900
H2439       H  0.27964741  0.66428483  0.52120997     0.12230
H2440       H  0.24420434  0.65250245  0.91774163     0.12230
H2441       H  0.21480997  0.65407105  0.95862866     0.12230
H2442       H  0.25046436  0.66482487  0.56217793     0.12230
C2443       C  0.26455012  0.66159552  0.71560434    -0.13900
C2444       C  0.26354938  0.66114290  0.75714123     0.08250
C2445       C  0.24527621  0.65927300  0.77517717    -0.13900
C2446       C  0.22822082  0.65962934  0.75225781    -0.13900
C2447       C  0.22918135  0.66107042  0.71082975     0.08250
C2448       C  0.24748748  0.66116545  0.69258095    -0.13900
H2449       H  0.27843466  0.66323073  0.70109794     0.12230
H2450       H  0.24409625  0.65921964  0.80723010     0.12230
H2451       H  0.21429688  0.65977298  0.76696038     0.12230
H2452       H  0.24858049  0.66261949  0.66065176     0.12230
C2453       C  0.15010648  0.75331039  0.94372889    -0.13900
C2454       C  0.15339910  0.77205516  0.95989526     0.08250
C2455       C  0.15452611  0.77411685  0.50128383    -0.13900
C2456       C  0.15382767  0.75765995  0.52585731    -0.13900
C2457       C  0.15242270  0.73878541  0.50956144     0.08250
C2458       C  0.14996198  0.73673248  0.96837183    -0.13900
H2459       H  0.14957571  0.75128394  0.91183457     0.12230
H2460       H  0.15726286  0.78832608  0.51446631     0.12230
H2461       H  0.15624048  0.75954356  0.55748666     0.12230
H2462       H  0.14946716  0.72231764  0.95507524     0.12230
C2463       C  0.14431728  0.76166392  0.76275783    -0.13900
C2464       C  0.15062960  0.77956497  0.74661939     0.08250
C2465       C  0.15513407  0.78024132  0.70602539    -0.13900
C2466       C  0.15471665  0.76314539  0.68290673    -0.13900
C2467       C  0.15044522  0.74495834  0.70024691     0.08250
C2468       C  0.14465867  0.74445644  0.74004224    -0.13900
H2469       H  0.14122033  0.76053694  0.79414455     0.12230
H2470       H  0.16040819  0.79368730  0.69294851     0.12230
H2471       H  0.15961861  0.76384519  0.65247408     0.12230
H2472       H  0.14166606  0.73058778  0.75426183     0.12230
C2473       C  0.22186429  0.74468564  0.88609530    -0.13900
C2474       C  0.21786673  0.75482098  0.85078579     0.08250
C2475       C  0.22560030  0.74822469  0.81485005    -0.13900
C2476       C  0.23965951  0.73376898  0.81527746    -0.13900
C2477       C  0.24599304  0.72597859  0.85164812     0.08250
C2478       C  0.23596631  0.73030219  0.88653952    -0.13900
H2479       H  0.21551220  0.74908463  0.91398958     0.12230
H2480       H  0.22225398  0.75546211  0.78702568     0.12230
H2481       H  0.24686095  0.73019176  0.78777900     0.12230
H2482       H  0.24019055  0.72387995  0.91471253     0.12230
C2483       C  0.33738695  0.77401994  0.96940378    -0.13900
C2484       C  0.34235442  0.77108756  0.50946216     0.08250
C2485       C  0.34856199  0.75231867  0.52148733    -0.13900
C2486       C  0.34766890  0.73643519  0.99518015    -0.13900
C2487       C  0.34069380  0.73910816  0.95641229     0.08250
C2488       C  0.33642040  0.75812591  0.94323194    -0.13900
H2489       H  0.33245039  0.78817582  0.95917681     0.12230
H2490       H  0.35254857  0.74954978  0.55215755     0.12230
H2491       H  0.35073046  0.72187396  0.00611558     0.12230
H2492       H  0.33076614  0.76042295  0.91345267     0.12230
C2493       C  0.32994594  0.76461057  0.79132366    -0.13900
C2494       C  0.33875929  0.74681367  0.78122496     0.08250
C2495       C  0.35220247  0.74649239  0.75033590    -0.13900
C2496       C  0.35512646  0.76323392  0.72710800    -0.13900
C2497       C  0.34471277  0.78057603  0.73452671     0.08250
C2498       C  0.33309790  0.78144481  0.76848786    -0.13900
H2499       H  0.31956000  0.76513610  0.81524882     0.12230
H2500       H  0.35913702  0.73292433  0.74205654     0.12230
H2501       H  0.36395976  0.76202629  0.70078880     0.12230
H2502       H  0.32457641  0.79436623  0.77453220     0.12230
C2503       C  0.26874411  0.74697841  0.61110392    -0.13900
C2504       C  0.26690115  0.76373061  0.63450474     0.08250
C2505       C  0.25098523  0.76616377  0.65954574    -0.13900
C2506       C  0.23636371  0.75220284  0.65972054    -0.13900
C2507       C  0.23753212  0.73623860  0.63399316     0.08250
C2508       C  0.25387706  0.73332502  0.61042607    -0.13900
H2509       H  0.28102393  0.74510648  0.59159829     0.12230
H2510       H  0.24961977  0.77911244  0.67784298     0.12230
H2511       H  0.22365666  0.75445710  0.67787586     0.12230
H2512       H  0.25477528  0.72087235  0.59062036     0.12230
C2513       C  0.27189593  0.84826306  0.76274337    -0.13900
C2514       C  0.27012285  0.85375091  0.72271110     0.08250
C2515       C  0.25191754  0.86065727  0.70906268    -0.13900
C2516       C  0.23545963  0.85995584  0.73335505    -0.13900
C2517       C  0.23686275  0.85246299  0.77194926     0.08250
C2518       C  0.25537840  0.84747047  0.78699685    -0.13900
H2519       H  0.28549309  0.84243779  0.77396953     0.12230
H2520       H  0.24998984  0.86474375  0.67820594     0.12230
H2521       H  0.22136986  0.86352352  0.72075342     0.12230
H2522       H  0.25677057  0.84128712  0.81649057     0.12230
C2523       C  0.24907196  0.85147425  0.51900220    -0.13900
C2524       C  0.26777356  0.84559670  0.50745277     0.08250
C2525       C  0.27128249  0.84188645  0.96718111    -0.13900
C2526       C  0.25581557  0.84172071  0.93987371    -0.13900
C2527       C  0.23684749  0.84562345  0.95248561     0.08250
C2528       C  0.23368763  0.85141935  0.49167611    -0.13900
H2529       H  0.24599993  0.85451509  0.54987286     0.12230
H2530       H  0.28549355  0.83720351  0.95756151     0.12230
H2531       H  0.25837906  0.83698400  0.90967937     0.12230
H2532       H  0.21908837  0.85424950  0.50188953     0.12230
C2533       C  0.12827366  0.61187764  0.68961129    -0.13900
C2534       C  0.10988464  0.61803264  0.70234087     0.08250
C2535       C  0.10348669  0.63679538  0.69130355    -0.13900
C2536       C  0.11513018  0.64902271  0.66804859    -0.13900
C2537       C  0.13346165  0.64279398  0.65508395     0.08250
C2538       C  0.13987938  0.62406748  0.66629715    -0.13900
H2539       H  0.13359651  0.59744554  0.69699952     0.12230
H2540       H  0.08932920  0.64196998  0.70017022     0.12230
H2541       H  0.10981891  0.66344629  0.66056148     0.12230
H2542       H  0.15400539  0.61883376  0.65736658     0.12230
C2543       C  0.10469012  0.50149779  0.90271325    -0.13900
C2544       C  0.09837873  0.48367019  0.88542439     0.08250
C2545       C  0.09455713  0.48348958  0.84435994    -0.13900
C2546       C  0.09516923  0.50106787  0.82230183    -0.13900
C2547       C  0.09919074  0.51918627  0.84100744     0.08250
C2548       C  0.10464625  0.51902688  0.88113414    -0.13900
H2549       H  0.10762184  0.50227208  0.93435430     0.12230
H2550       H  0.08918899  0.47028900  0.83018813     0.12230
H2551       H  0.09049492  0.50077944  0.79148970     0.12230
H2552       H  0.10757394  0.53265124  0.89652009     0.12230
C2553       C  0.09108452  0.50790194  0.58216740    -0.13900
C2554       C  0.08831275  0.48856516  0.59578462     0.08250
C2555       C  0.08656026  0.48519775  0.63662536    -0.13900
C2556       C  0.08541438  0.50099148  0.66271565    -0.13900
C2557       C  0.08594747  0.52020648  0.64820294     0.08250
C2558       C  0.08959862  0.52366182  0.60820225    -0.13900
H2559       H  0.09264707  0.51101573  0.55083779     0.12230
H2560       H  0.08445190  0.47054345  0.64797453     0.12230
H2561       H  0.08259595  0.49824336  0.69382019     0.12230
H2562       H  0.09003939  0.53845115  0.59676761     0.12230
C2563       C  0.96922624  0.58500308  0.64837981    -0.13900
C2564       C  0.97060039  0.59781405  0.61605402     0.08250
C2565       C  0.98776225  0.60887826  0.61164522    -0.13900
C2566       C  0.00378453  0.60596882  0.63707136    -0.13900
C2567       C  0.00307993  0.59150045  0.66652741     0.08250
C2568       C  0.98539713  0.58167273  0.67303569    -0.13900
H2569       H  0.95645197  0.57585995  0.65175236     0.12230
H2570       H  0.98939885  0.61841691  0.58622810     0.12230
H2571       H  0.01720365  0.61378380  0.63151704     0.12230
H2572       H  0.98440737  0.57061033  0.69592552     0.12230
C2573       C  0.00458351  0.60544630  0.91543036    -0.13900
C2574       C  0.98581310  0.60307185  0.89870933     0.08250
C2575       C  0.98375933  0.60414686  0.85719518    -0.13900
C2576       C  0.00027948  0.60541858  0.83307097    -0.13900
C2577       C  0.01909029  0.60522452  0.85003031     0.08250
C2578       C  0.02101431  0.60616163  0.89139841    -0.13900
H2579       H  0.00682576  0.60489703  0.94728082     0.12230
H2580       H  0.96960162  0.60237740  0.84327943     0.12230
H2581       H  0.99840079  0.60429022  0.80116954     0.12230
H2582       H  0.03529747  0.60576663  0.90521424     0.12230
C2583       C  0.01588344  0.50992082  0.97643379    -0.13900
C2584       C  0.01054174  0.49025929  0.98026150     0.08250
C2585       C  0.99094777  0.48481829  0.98288042    -0.13900
C2586       C  0.97678882  0.49906526  0.98286237    -0.13900
C2587       C  0.98222944  0.51874753  0.98035788     0.08250
C2588       C  0.00176054  0.52412501  0.97645834    -0.13900
H2589       H  0.03095195  0.51436351  0.97392603     0.12230
H2590       H  0.98659835  0.46965756  0.98585607     0.12230
H2591       H  0.96172648  0.49474229  0.98614954     0.12230
H2592       H  0.00615092  0.53930741  0.97414347     0.12230
C2593       C  0.00741644  0.51047816  0.82109784    -0.13900
C2594       C  0.02266006  0.50984397  0.79395203     0.08250
C2595       C  0.02511561  0.49358327  0.76929285    -0.13900
C2596       C  0.01078514  0.47944261  0.76734953    -0.13900
C2597       C  0.99415885  0.48150007  0.79038887     0.08250
C2598       C  0.99304651  0.49614731  0.81934215    -0.13900
H2599       H  0.00551010  0.52300800  0.84033886     0.12230
H2600       H  0.03712293  0.49283992  0.74877052     0.12230
H2601       H  0.01190316  0.46782198  0.74560132     0.12230
H2602       H  0.98023488  0.49763441  0.83750788     0.12230
C2603       C  0.99274581  0.40848366  0.57606162    -0.13900
C2604       C  0.01205009  0.41047621  0.59042824     0.08250
C2605       C  0.01531901  0.41044315  0.63158524    -0.13900
C2606       C  0.99957942  0.41067160  0.65754414    -0.13900
C2607       C  0.98037187  0.41094654  0.64284948     0.08250
C2608       C  0.97701709  0.40899416  0.60207155    -0.13900
H2609       H  0.98964835  0.40835611  0.54447095     0.12230
H2610       H  0.02989861  0.41196157  0.64365149     0.12230
H2611       H  0.00240581  0.41246482  0.68906055     0.12230
H2612       H  0.96234594  0.40952435  0.59015345     0.12230
C2613       C  0.98924644  0.39705594  0.86935841    -0.13900
C2614       C  0.98883861  0.40621533  0.83229283     0.08250
C2615       C  0.00652934  0.41265180  0.81585764    -0.13900
C2616       C  0.02394374  0.41203164  0.83823524    -0.13900
C2617       C  0.02396528  0.40453696  0.87703132     0.08250
C2618       C  0.00669218  0.39575357  0.89095474    -0.13900
H2619       H  0.97588630  0.39194778  0.88263144     0.12230
H2620       H  0.00653312  0.41991705  0.78728675     0.12230
H2621       H  0.03673296  0.41935836  0.82698440     0.12230
H2622       H  0.00614900  0.39003598  0.92092358     0.12230
C2623       C  0.91780803  0.51300015  0.66606031    -0.13900
C2624       C  0.91093737  0.49429489  0.65510702     0.08250
C2625       C  0.89982569  0.49243960  0.62016452    -0.13900
C2626       C  0.89740009  0.50859873  0.59477341    -0.13900
C2627       C  0.90557369  0.52702128  0.60433060     0.08250
C2628       C  0.91495583  0.52923071  0.64121538    -0.13900
H2629       H  0.92636613  0.51484126  0.69300099     0.12230
H2630       H  0.89443407  0.47823739  0.61090857     0.12230
H2631       H  0.89045960  0.50634588  0.56610243     0.12230
H2632       H  0.92186111  0.54299335  0.64897388     0.12230
C2633       C  0.90213372  0.48835468  0.88125060    -0.13900
C2634       C  0.90701581  0.48955606  0.84117726     0.08250
C2635       C  0.90971023  0.50806673  0.82378901    -0.13900
C2636       C  0.90940165  0.52502885  0.84717790    -0.13900
C2637       C  0.90583592  0.52371884  0.88805096     0.08250
C2638       C  0.90116036  0.50528376  0.90427362    -0.13900
H2639       H  0.90000493  0.47425111  0.89518242     0.12230
H2640       H  0.91366447  0.50927260  0.79283078     0.12230
H2641       H  0.91311251  0.53893010  0.83383550     0.12230
H2642       H  0.89832245  0.50365486  0.93566319     0.12230
C2643       C  0.87863669  0.64974863  0.92328390    -0.13900
C2644       C  0.85993009  0.64321263  0.91236173     0.08250
C2645       C  0.85323101  0.62524390  0.92750371    -0.13900
C2646       C  0.86524598  0.61375664  0.95166613    -0.13900
C2647       C  0.88409372  0.62006536  0.96131428     0.08250
C2648       C  0.89064258  0.63819218  0.94725937    -0.13900
H2649       H  0.88416754  0.66361040  0.91266198     0.12230
H2650       H  0.83878499  0.61990390  0.92026960     0.12230
H2651       H  0.86023816  0.59945283  0.96093877     0.12230
H2652       H  0.90543847  0.64293146  0.95317707     0.12230
C2653       C  0.73287051  0.66560323  0.96699016    -0.13900
C2654       C  0.73508309  0.66294596  0.50793351     0.08250
C2655       C  0.75307895  0.65704029  0.52373374    -0.13900
C2656       C  0.76920989  0.65547138  0.49917652    -0.13900
C2657       C  0.76725197  0.65908054  0.95843298     0.08250
C2658       C  0.74881771  0.66326015  0.94220435    -0.13900
H2659       H  0.71914178  0.67048941  0.95457520     0.12230
H2660       H  0.75501375  0.65528945  0.55550652     0.12230
H2661       H  0.78335796  0.65252774  0.51219850     0.12230
H2662       H  0.74713410  0.66652152  0.91087872     0.12230
C2663       C  0.73746579  0.64484605  0.73921967    -0.13900
C2664       C  0.73777577  0.65167890  0.69995112     0.08250
C2665       C  0.75553760  0.65827536  0.68443109    -0.13900
C2666       C  0.77211165  0.66000491  0.70880640    -0.13900
C2667       C  0.77145742  0.65453696  0.74892091     0.08250
C2668       C  0.75429401  0.64586815  0.76324236    -0.13900
H2669       H  0.72385741  0.64034835  0.75232559     0.12230
H2670       H  0.75601869  0.66423895  0.65465319     0.12230
H2671       H  0.78492832  0.66716665  0.69724222     0.12230
H2672       H  0.75319197  0.64206423  0.79435686     0.12230
C2673       C  0.83948642  0.77453048  0.75967405    -0.13900
C2674       C  0.84574273  0.77240221  0.72037457     0.08250
C2675       C  0.85203972  0.75384234  0.70756990    -0.13900
C2676       C  0.84995029  0.73741469  0.73205226    -0.13900
C2677       C  0.84161850  0.73942050  0.76954470     0.08250
C2678       C  0.83728279  0.75814660  0.78387132    -0.13900
H2679       H  0.83454703  0.78853993  0.77054486     0.12230
H2680       H  0.85692535  0.75168791  0.67742988     0.12230
H2681       H  0.85325265  0.72304744  0.72047128     0.12230
H2682       H  0.83083166  0.75991450  0.81286692     0.12230
C2683       C  0.83239336  0.77915895  0.96219074    -0.13900
C2684       C  0.84042514  0.77697791  0.50039340     0.08250
C2685       C  0.84935385  0.75910385  0.51041743    -0.13900
C2686       C  0.84836627  0.74310483  0.48464779    -0.13900
C2687       C  0.83867676  0.74474620  0.94813718     0.08250
C2688       C  0.83144502  0.76306484  0.93626143    -0.13900
H2689       H  0.82511668  0.79258628  0.95395900     0.12230
H2690       H  0.85556427  0.75697639  0.53978970     0.12230
H2691       H  0.85383665  0.72907698  0.49449926     0.12230
H2692       H  0.82368929  0.76449755  0.90826349     0.12230
C2693       C  0.77412443  0.74313785  0.64763342    -0.13900
C2694       C  0.76942757  0.76261646  0.65581023     0.08250
C2695       C  0.75119840  0.76723208  0.67162484    -0.13900
C2696       C  0.73691813  0.75287674  0.67408263    -0.13900
C2697       C  0.74088546  0.73408356  0.66020385     0.08250
C2698       C  0.75978310  0.72890530  0.64949375    -0.13900
H2699       H  0.78821033  0.73922730  0.63604095     0.12230
H2700       H  0.74751021  0.78216745  0.67902243     0.12230
H2701       H  0.72233194  0.75693092  0.68256873     0.12230
H2702       H  0.76295715  0.71426183  0.63917229     0.12230
C2703       C  0.72643768  0.74316839  0.91509849    -0.13900
C2704       C  0.71487631  0.74585734  0.88115755     0.08250
C2705       C  0.71764000  0.73430452  0.84745937    -0.13900
C2706       C  0.73370005  0.72210609  0.84566588    -0.13900
C2707       C  0.74672031  0.72127049  0.87791322     0.08250
C2708       C  0.74225154  0.73067788  0.91366529    -0.13900
H2709       H  0.72448075  0.75227135  0.94109711     0.12230
H2710       H  0.70885849  0.73644537  0.82100569     0.12230
H2711       H  0.73675945  0.71457208  0.81813894     0.12230
H2712       H  0.75204057  0.73002193  0.93903278     0.12230
C2713       C  0.64400207  0.75966809  0.73525606    -0.13900
C2714       C  0.66074333  0.76443373  0.75755615     0.08250
C2715       C  0.67609766  0.75118591  0.75948160    -0.13900
C2716       C  0.67495528  0.73341428  0.73960396    -0.13900
C2717       C  0.65865149  0.72865896  0.71592048     0.08250
C2718       C  0.64317475  0.74203552  0.71359170    -0.13900
H2719       H  0.63185392  0.76966371  0.73405574     0.12230
H2720       H  0.68900409  0.75458987  0.77685856     0.12230
H2721       H  0.68737157  0.72375851  0.74136227     0.12230
H2722       H  0.63061707  0.73890932  0.69497425     0.12230
C2723       C  0.67420716  0.78116427  0.00665199    -0.13900
C2724       C  0.65848607  0.78104005  0.97968773     0.08250
C2725       C  0.64583990  0.76475545  0.97955999    -0.13900
C2726       C  0.64962122  0.74847073  0.00377419    -0.13900
C2727       C  0.66638557  0.74794013  0.52789592     0.08250
C2728       C  0.67823277  0.76473427  0.53009026    -0.13900
H2729       H  0.68442091  0.79325599  0.50713924     0.12230
H2730       H  0.63371567  0.76408461  0.95882452     0.12230
H2731       H  0.64012042  0.73584023  0.00174494     0.12230
H2732       H  0.69106980  0.76491027  0.54898470     0.12230
C2733       C  0.73120836  0.84830498  0.49658493    -0.13900
C2734       C  0.73459672  0.84531374  0.95616339     0.08250
C2735       C  0.75399241  0.84501947  0.94284508    -0.13900
C2736       C  0.76964822  0.84528395  0.96988080    -0.13900
C2737       C  0.76611263  0.84563849  0.51071684     0.08250
C2738       C  0.74683739  0.84838723  0.52363516    -0.13900
H2739       H  0.71649848  0.84835404  0.50772400     0.12230
H2740       H  0.75697759  0.84266051  0.91168638     0.12230
H2741       H  0.78424495  0.84309615  0.95906260     0.12230
H2742       H  0.74369874  0.84884110  0.55507702     0.12230
C2743       C  0.73416825  0.84723945  0.73347503    -0.13900
C2744       C  0.73802813  0.83943902  0.77118991     0.08250
C2745       C  0.75732425  0.83891936  0.78531546    -0.13900
C2746       C  0.77264779  0.84326401  0.76002689    -0.13900
C2747       C  0.76883170  0.84790222  0.72016837     0.08250
C2748       C  0.74951185  0.85155047  0.70812409    -0.13900
H2749       H  0.71940097  0.84831668  0.72226250     0.12230
H2750       H  0.76066818  0.83364742  0.81491616     0.12230
H2751       H  0.78735981  0.84062746  0.77038405     0.12230
H2752       H  0.74612992  0.85550822  0.67769722     0.12230
C2753       C  0.63029982  0.60965631  0.53075920    -0.13900
C2754       C  0.61096666  0.61542781  0.52513486     0.08250
C2755       C  0.60503683  0.63375490  0.53904191    -0.13900
C2756       C  0.61827743  0.64623290  0.55821255    -0.13900
C2757       C  0.63764258  0.64042104  0.56457933     0.08250
C2758       C  0.64353791  0.62203417  0.55029739    -0.13900
H2759       H  0.63494736  0.59527192  0.52143639     0.12230
H2760       H  0.58998537  0.63815691  0.53608192     0.12230
H2761       H  0.61326851  0.66031623  0.56852204     0.12230
H2762       H  0.65838422  0.61716730  0.55426771     0.12230
C2763       C  0.57527040  0.50913279  0.82974779    -0.13900
C2764       C  0.58454143  0.49127979  0.83826276     0.08250
C2765       C  0.59871265  0.49092914  0.86852997    -0.13900
C2766       C  0.60221555  0.50768563  0.89197747    -0.13900
C2767       C  0.59194043  0.52524278  0.88503194     0.08250
C2768       C  0.57904824  0.52590498  0.85248002    -0.13900
H2769       H  0.56446712  0.50994308  0.80617581     0.12230
H2770       H  0.60613626  0.47743999  0.87568649     0.12230
H2771       H  0.61213921  0.50655686  0.91703121     0.12230
H2772       H  0.57070179  0.53896864  0.84638767     0.12230
C2773       C  0.59683893  0.48574991  0.62086193    -0.13900
C2774       C  0.58920550  0.48753379  0.65886962     0.08250
C2775       C  0.58374599  0.50602248  0.67301858    -0.13900
C2776       C  0.58391324  0.52224517  0.64767581    -0.13900
C2777       C  0.58978726  0.52007401  0.60815016     0.08250
C2778       C  0.59751874  0.50197098  0.59596801    -0.13900
H2779       H  0.60099209  0.47156228  0.60950943     0.12230
H2780       H  0.57759697  0.50751131  0.70234655     0.12230
H2781       H  0.57790751  0.53593172  0.65792868     0.12230
H2782       H  0.60244488  0.49980088  0.56585551     0.12230
C2783       C  0.35293804  0.62127494  0.81021206    -0.13900
C2784       C  0.35789608  0.64097827  0.81711971     0.08250
C2785       C  0.37543197  0.64815451  0.80133918    -0.13900
C2786       C  0.38786539  0.63586210  0.78017380    -0.13900
C2787       C  0.38303093  0.61616011  0.77406177     0.08250
C2788       C  0.36547637  0.60897314  0.78927685    -0.13900
H2789       H  0.33951696  0.61526091  0.82154763     0.12230
H2790       H  0.37965396  0.66328561  0.80554735     0.12230
H2791       H  0.40167574  0.64152935  0.77005142     0.12230
H2792       H  0.36182434  0.59362192  0.78623868     0.12230
C2793       C  0.48404457  0.59793440  0.87737416    -0.13900
C2794       C  0.48727238  0.59168725  0.83836020     0.08250
C2795       C  0.50657011  0.59066683  0.82474805    -0.13900
C2796       C  0.52227471  0.59322916  0.85102130    -0.13900
C2797       C  0.51889553  0.59666934  0.89132043     0.08250
C2798       C  0.49975300  0.60038821  0.90365454    -0.13900
H2799       H  0.46940825  0.59913427  0.88860258     0.12230
H2800       H  0.50955339  0.58631889  0.79449943     0.12230
H2801       H  0.53681050  0.59006137  0.84084864     0.12230
H2802       H  0.49678879  0.60295721  0.93475652     0.12230
C2803       C  0.49549678  0.60015386  0.65140248    -0.13900
C2804       C  0.47621321  0.59631764  0.63903292     0.08250
C2805       C  0.47267738  0.59140897  0.59923528    -0.13900
C2806       C  0.48825579  0.58779709  0.57384035    -0.13900
C2807       C  0.50763905  0.58921365  0.58773122     0.08250
C2808       C  0.51108092  0.59665770  0.62598435    -0.13900
H2809       H  0.49862117  0.60373907  0.68216596     0.12230
H2810       H  0.45805217  0.58801931  0.58909160     0.12230
H2811       H  0.48507922  0.58252428  0.54413682     0.12230
H2812       H  0.52577837  0.59821264  0.63740390     0.12230
C2813       C  0.49733290  0.48887650  0.68530771    -0.13900
C2814       C  0.49725151  0.47438865  0.71460974     0.08250
C2815       C  0.48138436  0.47247810  0.74010101    -0.13900
C2816       C  0.46663758  0.48629624  0.73906927    -0.13900
C2817       C  0.46812889  0.50223989  0.71331365     0.08250
C2818       C  0.48290335  0.50299731  0.68506605    -0.13900
H2819       H  0.50952831  0.49046548  0.66545858     0.12230
H2820       H  0.48115180  0.46118124  0.76262251     0.12230
H2821       H  0.45530067  0.48569277  0.76112619     0.12230
H2822       H  0.48410680  0.51533484  0.66506847     0.12230
C2823       C  0.50063750  0.40913843  0.91910335    -0.13900
C2824       C  0.48235476  0.40497972  0.90183776     0.08250
C2825       C  0.48135497  0.39974785  0.86161742    -0.13900
C2826       C  0.49819975  0.39975085  0.83857159    -0.13900
C2827       C  0.51615333  0.40574073  0.85496986     0.08250
C2828       C  0.51732714  0.40996511  0.89565742    -0.13900
H2829       H  0.50172859  0.41360469  0.94992270     0.12230
H2830       H  0.46742992  0.39673813  0.84756022     0.12230
H2831       H  0.49682732  0.39706768  0.80694878     0.12230
H2832       H  0.53083002  0.41525084  0.90863542     0.12230
C2833       C  0.49270020  0.40917205  0.66926859    -0.13900
C2834       C  0.51062866  0.40401940  0.65253969     0.08250
C2835       C  0.51115180  0.39851032  0.61248377    -0.13900
C2836       C  0.49423232  0.39922506  0.58901285    -0.13900
C2837       C  0.47674992  0.40625656  0.60480052     0.08250
C2838       C  0.47598493  0.41073353  0.64536789    -0.13900
H2839       H  0.49203315  0.41389528  0.69993975     0.12230
H2840       H  0.52483244  0.39479030  0.59884038     0.12230
H2841       H  0.49530334  0.39629094  0.55748975     0.12230
H2842       H  0.46286740  0.41676524  0.65786986     0.12230
C2843       C  0.49759861  0.48772340  0.93243553    -0.13900
C2844       C  0.49721413  0.47384077  0.96291306     0.08250
C2845       C  0.51318482  0.47169717  0.48865634    -0.13900
C2846       C  0.52848332  0.48496037  0.98694453    -0.13900
C2847       C  0.52740101  0.50058027  0.96027736     0.08250
C2848       C  0.51260307  0.50131254  0.93148480    -0.13900
H2849       H  0.48535044  0.48940518  0.91225572     0.12230
H2850       H  0.51308055  0.46077954  0.51194320     0.12230
H2851       H  0.53985556  0.48439972  0.50941882     0.12230
H2852       H  0.51172615  0.51342123  0.91082598     0.12230
C2853       C  0.39585011  0.49245857  0.61536011    -0.13900
C2854       C  0.41022567  0.49280132  0.58610238     0.08250
C2855       C  0.41979989  0.51064023  0.57850302    -0.13900
C2856       C  0.41608512  0.52738238  0.60115851    -0.13900
C2857       C  0.40295468  0.52670604  0.63275209     0.08250
C2858       C  0.39242165  0.50916985  0.63876286    -0.13900
H2859       H  0.38817673  0.47899884  0.62180778     0.12230
H2860       H  0.43076630  0.51146822  0.55571527     0.12230
H2861       H  0.42466032  0.54041683  0.59586984     0.12230
H2862       H  0.38232281  0.50802298  0.66309953     0.12230
C2863       C  0.41200979  0.52421561  0.89612747    -0.13900
C2864       C  0.40519914  0.52231859  0.85689000     0.08250
C2865       C  0.39646615  0.50453089  0.84490431    -0.13900
C2866       C  0.39706015  0.48823083  0.86958479    -0.13900
C2867       C  0.40563317  0.48967725  0.90716743     0.08250
C2868       C  0.41211670  0.50793236  0.92126249    -0.13900
H2869       H  0.41879791  0.53766959  0.90619570     0.12230
H2870       H  0.39079824  0.50262772  0.81501981     0.12230
H2871       H  0.39206071  0.47421968  0.85835532     0.12230
H2872       H  0.41894726  0.50914435  0.95030432     0.12230
C2873       C  0.88135794  0.36435435  0.82837276    -0.13900
C2874       C  0.86290450  0.37116177  0.83878988     0.08250
C2875       C  0.85723575  0.38991628  0.82667428    -0.13900
C2876       C  0.86969627  0.40156565  0.80395927    -0.13900
C2877       C  0.88803061  0.39458336  0.79248459     0.08250
C2878       C  0.89384747  0.37596670  0.80572936    -0.13900
H2879       H  0.88570720  0.34961968  0.83604082     0.12230
H2880       H  0.84274752  0.39512976  0.83297933     0.12230
H2881       H  0.86481349  0.41591575  0.79483501     0.12230
H2882       H  0.90793598  0.37018433  0.79800814     0.12230
C2883       C  0.63935875  0.38516161  0.67114091    -0.13900
C2884       C  0.63335301  0.36663211  0.65734253     0.08250
C2885       C  0.61483139  0.35982055  0.66831704    -0.13900
C2886       C  0.60269602  0.37114586  0.69223588    -0.13900
C2887       C  0.60866160  0.38967423  0.70604629     0.08250
C2888       C  0.62718271  0.39652567  0.69509199    -0.13900
H2889       H  0.65360574  0.39081346  0.66388163     0.12230
H2890       H  0.60972727  0.34555686  0.65879972     0.12230
H2891       H  0.58847474  0.36542308  0.69948764     0.12230
H2892       H  0.63221479  0.41081215  0.70461824     0.12230
C2893       C  0.75405167  0.34382702  0.53710759    -0.13900
C2894       C  0.73509269  0.34836997  0.52389534     0.08250
C2895       C  0.73271098  0.35636105  0.98584610    -0.13900
C2896       C  0.74868867  0.35794976  0.96026641    -0.13900
C2897       C  0.76744879  0.35189139  0.97236222     0.08250
C2898       C  0.77008832  0.34580050  0.51183088    -0.13900
H2899       H  0.75626263  0.33742283  0.56620668     0.12230
H2900       H  0.71829131  0.35967794  0.97462556     0.12230
H2901       H  0.74607956  0.36230808  0.92976455     0.12230
H2902       H  0.78412770  0.34050600  0.52179320     0.12230
C2903       C  0.74625380  0.35244312  0.77400900    -0.13900
C2904       C  0.76476913  0.34762545  0.75959147     0.08250
C2905       C  0.76739364  0.34612204  0.71841631    -0.13900
C2906       C  0.75125881  0.34698646  0.69268000    -0.13900
C2907       C  0.73248381  0.34927780  0.70803084     0.08250
C2908       C  0.73020992  0.35297392  0.74849858    -0.13900
H2909       H  0.74383029  0.35399585  0.80558317     0.12230
H2910       H  0.78146165  0.34238699  0.70652855     0.12230
H2911       H  0.75319056  0.34381170  0.66144940     0.12230
H2912       H  0.71582620  0.35462142  0.76081895     0.12230
C2913       C  0.84921981  0.25145319  0.00859251    -0.13900
C2914       C  0.83370192  0.25138853  0.53528572     0.08250
C2915       C  0.82317599  0.26875588  0.54075401    -0.13900
C2916       C  0.82693113  0.28530931  0.01751431    -0.13900
C2917       C  0.84087798  0.28462961  0.98744840     0.08250
C2918       C  0.85260536  0.26783940  0.98450970    -0.13900
H2919       H  0.85763510  0.23832103  0.00395953     0.12230
H2920       H  0.81131458  0.26919087  0.56162269     0.12230
H2921       H  0.81735783  0.29777746  0.01991241     0.12230
H2922       H  0.86319170  0.26673467  0.96104398     0.12230
C2923       C  0.84898745  0.23761451  0.75056476    -0.13900
C2924       C  0.84433248  0.23980586  0.71033431     0.08250
C2925       C  0.84149554  0.25871411  0.69499758    -0.13900
C2926       C  0.84129809  0.27500382  0.72034711    -0.13900
C2927       C  0.84408968  0.27258933  0.76141687     0.08250
C2928       C  0.84921783  0.25387912  0.77574330    -0.13900
H2929       H  0.85082311  0.22315856  0.76312465     0.12230
H2930       H  0.83744178  0.26063953  0.66407318     0.12230
H2931       H  0.83729703  0.28911183  0.70830149     0.12230
H2932       H  0.85160080  0.25140736  0.80716971     0.12230
C2933       C  0.73329014  0.22836671  0.60691602    -0.13900
C2934       C  0.74576045  0.22668428  0.63992178     0.08250
C2935       C  0.74205287  0.23736228  0.67455692    -0.13900
C2936       C  0.72806141  0.25195158  0.67373944    -0.13900
C2937       C  0.71792246  0.25577045  0.63828613     0.08250
C2938       C  0.71945272  0.24298061  0.60601901    -0.13900
H2939       H  0.73550911  0.21974687  0.58035233     0.12230
H2940       H  0.75129466  0.23596493  0.70062863     0.12230
H2941       H  0.72670077  0.26148475  0.69924809     0.12230
H2942       H  0.71117915  0.24534157  0.57890112     0.12230
C2943       C  0.75588905  0.23164333  0.85577001    -0.13900
C2944       C  0.73983490  0.23395758  0.88047857     0.08250
C2945       C  0.73869568  0.24971173  0.90672147    -0.13900
C2946       C  0.75290741  0.26405839  0.90597522    -0.13900
C2947       C  0.76846478  0.26229854  0.87979121     0.08250
C2948       C  0.77043467  0.24573028  0.85588371    -0.13900
H2949       H  0.75675325  0.21937136  0.83550783     0.12230
H2950       H  0.72621590  0.25155370  0.92571096     0.12230
H2951       H  0.75145175  0.27683385  0.92474502     0.12230
H2952       H  0.78247219  0.24436088  0.83560048     0.12230
C2953       C  0.65903570  0.27844006  0.96144167    -0.13900
C2954       C  0.65281664  0.27718151  0.50093756     0.08250
C2955       C  0.64502494  0.25934918  0.51442002    -0.13900
C2956       C  0.64534700  0.24262286  0.49022374    -0.13900
C2957       C  0.65274125  0.24365619  0.95162329     0.08250
C2958       C  0.65870886  0.26189114  0.93682508    -0.13900
H2959       H  0.66557652  0.29182136  0.95064960     0.12230
H2960       H  0.64071683  0.25780374  0.54510967     0.12230
H2961       H  0.64112405  0.22864243  0.50257587     0.12230
H2962       H  0.66489946  0.26292672  0.90745169     0.12230
C2963       C  0.65273464  0.23504087  0.71766120    -0.13900
C2964       C  0.65207591  0.23652336  0.75915363     0.08250
C2965       C  0.64939747  0.25501007  0.77644878    -0.13900
C2966       C  0.64893839  0.27189839  0.75291355    -0.13900
C2967       C  0.65063369  0.27056182  0.71149892     0.08250
C2968       C  0.65161839  0.25188562  0.69397820    -0.13900
H2969       H  0.65541358  0.22104035  0.70376219     0.12230
H2970       H  0.64944468  0.25655633  0.80847431     0.12230
H2971       H  0.64841284  0.28606554  0.76723199     0.12230
H2972       H  0.65335184  0.25042274  0.66218613     0.12230
C2973       C  0.74871394  0.16650173  0.94349907    -0.13900
C2974       C  0.73066938  0.16153569  0.95999213     0.08250
C2975       C  0.72964139  0.15697848  0.50042832    -0.13900
C2976       C  0.74627426  0.15832075  0.52447557    -0.13900
C2977       C  0.76390830  0.16509549  0.50870922     0.08250
C2978       C  0.76516096  0.16867919  0.96786922    -0.13900
H2979       H  0.74969231  0.17045790  0.91243257     0.12230
H2980       H  0.71580646  0.15342974  0.51373629     0.12230
H2981       H  0.74492849  0.15578938  0.55608188     0.12230
H2982       H  0.77855016  0.17412071  0.95526183     0.12230
C2983       C  0.76613889  0.15717524  0.75990760    -0.13900
C2984       C  0.76531095  0.15639856  0.71824823     0.08250
C2985       C  0.74691693  0.15431952  0.69972291    -0.13900
C2986       C  0.72973798  0.15502496  0.72206668    -0.13900
C2987       C  0.73061956  0.15695589  0.76354048     0.08250
C2988       C  0.74901474  0.15716697  0.78225453    -0.13900
H2989       H  0.77997015  0.15918057  0.77504962     0.12230
H2990       H  0.74571891  0.15422499  0.66762864     0.12230
H2991       H  0.71582733  0.15548597  0.70676053     0.12230
H2992       H  0.75013095  0.15926186  0.81409608     0.12230
C2993       C  0.10500613  0.87341645  0.93771535    -0.13900
C2994       C  0.11131185  0.89194326  0.95081104     0.08250
C2995       C  0.12996103  0.89839219  0.93993827    -0.13900
C2996       C  0.14194589  0.88666137  0.91658377    -0.13900
C2997       C  0.13561564  0.86815571  0.90340209     0.08250
C2998       C  0.11698394  0.86169341  0.91434702    -0.13900
H2999       H  0.09065035  0.86805032  0.94497504     0.12230
H3000       H  0.13524454  0.91266026  0.94901426     0.12230
H3001       H  0.15629865  0.89202627  0.90929654     0.12230
H3002       H  0.11169086  0.84743176  0.90525253     0.12230
C3003       C  0.08801182  0.98693709  0.85153820    -0.13900
C3004       C  0.08876415  0.98960540  0.89280137     0.08250
C3005       C  0.09183072  0.00843824  0.90827985    -0.13900
C3006       C  0.09223782  0.02463445  0.88292158    -0.13900
C3007       C  0.09032016  0.02208216  0.84174088     0.08250
C3008       C  0.08917227  0.00306208  0.82611469    -0.13900
H3009       H  0.08529046  0.97255634  0.83913568     0.12230
H3010       H  0.09204969  0.01079348  0.94009895     0.12230
H3011       H  0.09273498  0.03919904  0.89553984     0.12230
H3012       H  0.08719282  0.00082664  0.79447154     0.12230
C3013       C  0.10089535  0.99024721  0.63031419    -0.13900
C3014       C  0.09727918  0.99111872  0.58920053     0.08250
C3015       C  0.09524627  0.00963777  0.57150995    -0.13900
C3016       C  0.09496137  0.02671138  0.59479226    -0.13900
C3017       C  0.09734541  0.02577294  0.63626039     0.08250
C3018       C  0.10132574  0.00742623  0.65346246    -0.13900
H3019       H  0.10187402  0.97619804  0.64497533     0.12230
H3020       H  0.09181329  0.01074338  0.54012168     0.12230
H3021       H  0.09129895  0.04047282  0.58076995     0.12230
H3022       H  0.10255743  0.00609643  0.68543822     0.12230
C3023       C  0.86401836  0.11125927  0.54143918    -0.13900
C3024       C  0.88265317  0.11746905  0.52998410     0.08250
C3025       C  0.88874379  0.13647530  0.54034400    -0.13900
C3026       C  0.87653438  0.14894616  0.56145518    -0.13900
C3027       C  0.85788413  0.14276916  0.57282446     0.08250
C3028       C  0.85179617  0.12374388  0.56257040    -0.13900
H3029       H  0.85891678  0.09664671  0.03447238     0.12230
H3030       H  0.90307849  0.14169984  0.53253423     0.12230
H3031       H  0.88166298  0.16354694  0.56844467     0.12230
H3032       H  0.83745280  0.11854769  0.57039085     0.12230
C3033       C  0.99835153  0.10753366  0.65159594    -0.13900
C3034       C  0.01692400  0.10497143  0.63539416     0.08250
C3035       C  0.01848346  0.10296486  0.59399453    -0.13900
C3036       C  0.00177093  0.10217571  0.56969380    -0.13900
C3037       C  0.98317162  0.10264106  0.58651352     0.08250
C3038       C  0.98162271  0.10599611  0.62750417    -0.13900
H3039       H  0.99665943  0.10842200  0.68349349     0.12230
H3040       H  0.03253373  0.10032167  0.58086878     0.12230
H3041       H  0.00336259  0.09914768  0.53831985     0.12230
H3042       H  0.96747138  0.10602602  0.64128544     0.12230
C3043       C  0.97471208  0.09886008  0.84709053    -0.13900
C3044       C  0.97778427  0.09942512  0.88837108     0.08250
C3045       C  0.99688664  0.10135994  0.90305925    -0.13900
C3046       C  0.01271211  0.10112307  0.87718265    -0.13900
C3047       C  0.00971600  0.09936375  0.83605735     0.08250
C3048       C  0.99056308  0.09906160  0.82109543    -0.13900
H3049       H  0.96019113  0.09667670  0.83512644     0.12230
H3050       H  0.99966203  0.10113490  0.93478633     0.12230
H3051       H  0.02732245  0.10082643  0.88946413     0.12230
H3052       H  0.98791230  0.09711699  0.78957385     0.12230
C3053       C  0.98696281  0.00888749  0.04529263    -0.13900
C3054       C  0.97536491  0.01148884  0.01131484     0.08250
C3055       C  0.97704610  0.99889407  0.97876452    -0.13900
C3056       C  0.99156477  0.98505851  0.97846994    -0.13900
C3057       C  0.00444586  0.98372547  0.01076755     0.08250
C3058       C  0.00155651  0.99496130  0.04501696    -0.13900
H3059       H  0.98566174  0.01845756  0.07076411     0.12230
H3060       H  0.96780468  0.00043618  0.95270702     0.12230
H3061       H  0.99327281  0.97604846  0.95226836     0.12230
H3062       H  0.01128951  0.99387314  0.07040714     0.12230
C3063       C  0.87004312  0.89872267  0.67106698    -0.13900
C3064       C  0.88790191  0.89167792  0.68586750     0.08250
C3065       C  0.89418002  0.87309953  0.67366919    -0.13900
C3066       C  0.88236430  0.86142797  0.64924140    -0.13900
C3067       C  0.86418763  0.86816698  0.63608305     0.08250
C3068       C  0.85829225  0.88704180  0.64651498    -0.13900
H3069       H  0.86490152  0.91310495  0.67917104     0.12230
H3070       H  0.90798518  0.86733340  0.68386651     0.12230
H3071       H  0.88680689  0.84658524  0.64288458     0.12230
H3072       H  0.84396239  0.89218721  0.63808284     0.12230
C3073       C  0.98538744  0.90255413  0.60757163    -0.13900
C3074       C  0.98616670  0.90676368  0.64835962     0.08250
C3075       C  0.00447889  0.90882051  0.66691532    -0.13900
C3076       C  0.02154424  0.90872794  0.64438251    -0.13900
C3077       C  0.02069716  0.90574484  0.60309692     0.08250
C3078       C  0.00251437  0.90161418  0.58534321    -0.13900
H3079       H  0.97147456  0.90113794  0.59247583     0.12230
H3080       H  0.00547637  0.91240741  0.69820932     0.12230
H3081       H  0.03523918  0.91243474  0.65870769     0.12230
H3082       H  0.00131093  0.89982197  0.55344493     0.12230
C3083       C  0.99467344  0.90169976  0.83670263    -0.13900
C3084       C  0.97626763  0.90676382  0.85133599     0.08250
C3085       C  0.97454604  0.91102384  0.89192325    -0.13900
C3086       C  0.99105448  0.91155429  0.91671517    -0.13900
C3087       C  0.00966409  0.90844108  0.90115833     0.08250
C3088       C  0.01129464  0.90289235  0.86122886    -0.13900
H3089       H  0.99652225  0.89903790  0.80525325     0.12230
H3090       H  0.96069248  0.91557994  0.90369022     0.12230
H3091       H  0.98949249  0.91631209  0.94720457     0.12230
H3092       H  0.02550389  0.90089240  0.84834564     0.12230
C3093       C  0.00184996  0.98677529  0.76268354    -0.13900
C3094       C  0.99000816  0.98404437  0.72906201     0.08250
C3095       C  0.99286958  0.99518798  0.69477851    -0.13900
C3096       C  0.00660403  0.01001324  0.69518922    -0.13900
C3097       C  0.01747367  0.01364577  0.72987011     0.08250
C3098       C  0.01555129  0.00154719  0.76309523    -0.13900
H3099       H  0.00003592  0.97797562  0.78913449     0.12230
H3100       H  0.98383628  0.99315824  0.66853888     0.12230
H3101       H  0.00804702  0.01916205  0.66913884     0.12230
H3102       H  0.02416253  0.00389077  0.78981174     0.12230
C3103       C  0.90610693  0.00755805  0.82041019    -0.13900
C3104       C  0.90205513  0.98878708  0.83525624     0.08250
C3105       C  0.89583712  0.98708561  0.87473325    -0.13900
C3106       C  0.89504573  0.00373514  0.89949455    -0.13900
C3107       C  0.90083684  0.02226193  0.88540540     0.08250
C3108       C  0.90565435  0.02403254  0.84517349    -0.13900
H3109       H  0.91136802  0.00924869  0.79038889     0.12230
H3110       H  0.89318838  0.97277339  0.88732317     0.12230
H3111       H  0.89191019  0.00177878  0.93069124     0.12230
H3112       H  0.91068958  0.03792918  0.83371207     0.12230
C3113       C  0.90285484  0.98638821  0.60026953    -0.13900
C3114       C  0.90394477  0.98798596  0.64175341     0.08250
C3115       C  0.90235552  0.00652563  0.65937462    -0.13900
C3116       C  0.90169667  0.02336211  0.63573722    -0.13900
C3117       C  0.90187322  0.02183740  0.59415342     0.08250
C3118       C  0.90142506  0.00316200  0.57667316    -0.13900
H3119       H  0.90425898  0.97225357  0.58608946     0.12230
H3120       H  0.90346905  0.00810811  0.69132991     0.12230
H3121       H  0.90225808  0.03757873  0.64988986     0.12230
H3122       H  0.90188990  0.00157519  0.54469011     0.12230
C3123       C  0.39479842  0.87421574  0.55762422    -0.13900
C3124       C  0.38897823  0.89328556  0.54757198     0.08250
C3125       C  0.37123101  0.90028503  0.56226584    -0.13900
C3126       C  0.35925121  0.88820943  0.58502359    -0.13900
C3127       C  0.36484350  0.86900410  0.59372431     0.08250
C3128       C  0.38276955  0.86216918  0.58021202    -0.13900
H3129       H  0.40847342  0.86842092  0.54733930     0.12230
H3130       H  0.36643824  0.91499633  0.55569312     0.12230
H3131       H  0.34510363  0.89346502  0.59382378     0.12230
H3132       H  0.38696459  0.84712381  0.58530995     0.12230
C3133       C  0.40375592  0.98313189  0.84893365    -0.13900
C3134       C  0.40086615  0.98387820  0.89017154     0.08250
C3135       C  0.39642045  0.00211443  0.90734750    -0.13900
C3136       C  0.39699823  0.01939609  0.88462315    -0.13900
C3137       C  0.40125420  0.01870219  0.84395437     0.08250
C3138       C  0.40373078  0.00029775  0.82608813    -0.13900
H3139       H  0.40761025  0.96945811  0.83488695     0.12230
H3140       H  0.39466015  0.00331263  0.93917547     0.12230
H3141       H  0.39562437  0.03337642  0.89941017     0.12230
H3142       H  0.40758608  0.99936197  0.79503304     0.12230
C3143       C  0.41213637  0.99984576  0.66888799    -0.13900
C3144       C  0.40925925  0.01865186  0.65333991     0.08250
C3145       C  0.40564981  0.02094368  0.61261563    -0.13900
C3146       C  0.40598692  0.00469104  0.58739368    -0.13900
C3147       C  0.41070423  0.98611816  0.60246794     0.08250
C3148       C  0.41313217  0.98369417  0.64354154    -0.13900
H3149       H  0.41538477  0.99791327  0.70018932     0.12230
H3150       H  0.40390065  0.03540661  0.60004301     0.12230
H3151       H  0.40438552  0.00693974  0.55569009     0.12230
H3152       H  0.41693399  0.96954729  0.65569348     0.12230
C3153       C  0.60485842  0.13695422  0.94669543    -0.13900
C3154       C  0.61109904  0.11835705  0.95917840     0.08250
C3155       C  0.62936013  0.11174580  0.94652761    -0.13900
C3156       C  0.64099500  0.12335989  0.92198995    -0.13900
C3157       C  0.63469782  0.14191307  0.90934213     0.08250
C3158       C  0.61648299  0.14855760  0.92216027    -0.13900
H3159       H  0.59079845  0.14247311  0.95535018     0.12230
H3160       H  0.63456351  0.09741416  0.95500739     0.12230
H3161       H  0.65503844  0.11783654  0.91323862     0.12230
H3162       H  0.61124119  0.16286136  0.91358383     0.12230
C3163       C  0.50381113  0.10739453  0.59783546    -0.13900
C3164       C  0.52152395  0.10027587  0.61323786     0.08250
C3165       C  0.52249533  0.09490717  0.65342062    -0.13900
C3166       C  0.50583071  0.09555621  0.67704034    -0.13900
C3167       C  0.48774294  0.10081906  0.66050322     0.08250
C3168       C  0.48696273  0.10724262  0.62099628    -0.13900
H3169       H  0.50250352  0.11102497  0.56661540     0.12230
H3170       H  0.53577225  0.08885083  0.66571015     0.12230
H3171       H  0.50668369  0.09007287  0.70717911     0.12230
H3172       H  0.47313185  0.11091525  0.60734825     0.12230
C3173       C  0.49475593  0.10035278  0.92501657    -0.13900
C3174       C  0.51289370  0.10344100  0.90705910     0.08250
C3175       C  0.51334845  0.10786818  0.86640321    -0.13900
C3176       C  0.49609975  0.10813550  0.84375576    -0.13900
C3177       C  0.47819302  0.10314310  0.86096911     0.08250
C3178       C  0.47762974  0.09976608  0.90204489    -0.13900
H3179       H  0.49402245  0.09651802  0.95617062     0.12230
H3180       H  0.52712564  0.11003377  0.85175103     0.12230
H3181       H  0.49705301  0.11018691  0.81193818     0.12230
H3182       H  0.46416720  0.09532263  0.91583556     0.12230
C3183       C  0.49574460  0.02376406  0.94429365    -0.13900
C3184       C  0.49979093  0.03364757  0.97990469     0.08250
C3185       C  0.48807777  0.03065614  0.51311687    -0.13900
C3186       C  0.47443705  0.01575608  0.51266339    -0.13900
C3187       C  0.47252075  0.00382136  0.97899894     0.08250
C3188       C  0.48209000  0.00878712  0.94385193    -0.13900
H3189       H  0.50444577  0.02617647  0.91811695     0.12230
H3190       H  0.49062606  0.03864150  0.54049542     0.12230
H3191       H  0.46663165  0.01256444  0.53968459     0.12230
H3192       H  0.48043817  0.99999622  0.91725415     0.12230
C3193       C  0.62454128  0.89537673  0.82241263    -0.13900
C3194       C  0.61462542  0.89175114  0.78626516     0.08250
C3195       C  0.61648319  0.87352502  0.76799381    -0.13900
C3196       C  0.62803671  0.85914979  0.78565573    -0.13900
C3197       C  0.63803635  0.86278400  0.82175941     0.08250
C3198       C  0.63614542  0.88102889  0.84002201    -0.13900
H3199       H  0.62316030  0.90934877  0.83726325     0.12230
H3200       H  0.60857455  0.87021333  0.74081641     0.12230
H3201       H  0.62929044  0.84516033  0.77083266     0.12230
H3202       H  0.64399713  0.88436145  0.86725313     0.12230
C3203       C  0.51668940  0.90705716  0.88643150    -0.13900
C3204       C  0.51370477  0.90901630  0.84527345     0.08250
C3205       C  0.49467686  0.90666453  0.82995333    -0.13900
C3206       C  0.47881591  0.90514435  0.85538241    -0.13900
C3207       C  0.48164977  0.90540923  0.89659088     0.08250
C3208       C  0.50075027  0.90521087  0.91188488    -0.13900
H3209       H  0.53109909  0.90876287  0.89923683     0.12230
H3210       H  0.49179042  0.90787511  0.79838155     0.12230
H3211       H  0.46424440  0.90574593  0.84294624     0.12230
H3212       H  0.50325788  0.90594057  0.94366923     0.12230
C3213       C  0.50819967  0.90092765  0.64122366    -0.13900
C3214       C  0.52611291  0.91001174  0.63285536     0.08250
C3215       C  0.52843780  0.91915081  0.59595027    -0.13900
C3216       C  0.51248326  0.92126789  0.57010028    -0.13900
C3217       C  0.49414385  0.91379436  0.58028412     0.08250
C3218       C  0.49236780  0.90263803  0.61492662    -0.13900
H3219       H  0.50590356  0.89422690  0.66994135     0.12230
H3220       H  0.54186528  0.92672858  0.58925728     0.12230
H3221       H  0.51411167  0.92996661  0.54347185     0.12230
H3222       H  0.47832897  0.89689623  0.62348867     0.12230
C3223       C  0.49112190  0.00927215  0.78418089    -0.13900
C3224       C  0.49216812  0.02512926  0.75808857     0.08250
C3225       C  0.50789762  0.02736609  0.73243323    -0.13900
C3226       C  0.52233702  0.01331037  0.73210551    -0.13900
C3227       C  0.52057905  0.99694044  0.75661852     0.08250
C3228       C  0.50521566  0.99502789  0.78304778    -0.13900
H3229       H  0.47891953  0.00740186  0.80392546     0.12230
H3230       H  0.50875504  0.03968335  0.71230805     0.12230
H3231       H  0.53425548  0.01465411  0.71149656     0.12230
H3232       H  0.50393548  0.98230965  0.80203182     0.12230
C3233       C  0.60386747  0.01463914  0.61837456    -0.13900
C3234       C  0.59068633  0.01425378  0.58634354     0.08250
C3235       C  0.58171997  0.99630363  0.57636274    -0.13900
C3236       C  0.58444930  0.97957667  0.59990549    -0.13900
C3237       C  0.59585374  0.98051665  0.63461369     0.08250
C3238       C  0.60624973  0.99799413  0.64251090    -0.13900
H3239       H  0.61092818  0.02820928  0.62687715     0.12230
H3240       H  0.57155254  0.99554616  0.55162062     0.12230
H3241       H  0.57585729  0.96662700  0.59347782     0.12230
H3242       H  0.61482848  0.99932638  0.66954022     0.12230
C3243       C  0.59692567  0.00633054  0.84159248    -0.13900
C3244       C  0.59279084  0.98749841  0.85635595     0.08250
C3245       C  0.58965995  0.98516420  0.89720864    -0.13900
C3246       C  0.58910458  0.00154975  0.92211874    -0.13900
C3247       C  0.59124393  0.02041274  0.90627738     0.08250
C3248       C  0.59577714  0.02267440  0.86621661    -0.13900
H3249       H  0.59933000  0.00869525  0.81023240     0.12230
H3250       H  0.58638628  0.97089252  0.90937761     0.12230
H3251       H  0.58531595  0.99962622  0.95302009     0.12230
H3252       H  0.59725464  0.03714202  0.85351243     0.12230
C3253       C  0.13678680  0.38403573  0.58101665    -0.13900
C3254       C  0.13659386  0.36444073  0.56913564     0.08250
C3255       C  0.12463047  0.35877519  0.53677546    -0.13900
C3256       C  0.11315883  0.37242607  0.51650854    -0.13900
C3257       C  0.11344067  0.39202190  0.52823784     0.08250
C3258       C  0.12525834  0.39768308  0.56079332    -0.13900
H3259       H  0.14624539  0.38887693  0.60501516     0.12230
H3260       H  0.12438685  0.34371557  0.52679387     0.12230
H3261       H  0.10365309  0.36758828  0.49258143     0.12230
H3262       H  0.12535483  0.41272765  0.57087357     0.12230
C3263       C  0.38021879  0.36196709  0.91009011    -0.13900
C3264       C  0.36177127  0.36845558  0.89809457     0.08250
C3265       C  0.35571862  0.38714075  0.90990321    -0.13900
C3266       C  0.36777749  0.39895882  0.93391468    -0.13900
C3267       C  0.38605808  0.39219893  0.94704520     0.08250
C3268       C  0.39225368  0.37369666  0.93401070    -0.13900
H3269       H  0.38487722  0.34730096  0.90278397     0.12230
H3270       H  0.34120596  0.39212056  0.90249095     0.12230
H3271       H  0.36263050  0.41322960  0.94276749     0.12230
H3272       H  0.40631236  0.36804789  0.94291668     0.12230
C3273       C  0.24336849  0.34516924  0.78200578    -0.13900
C3274       C  0.26291060  0.34479949  0.76940471     0.08250
C3275       C  0.26665188  0.34673809  0.72882013    -0.13900
C3276       C  0.25118448  0.34659479  0.70127105    -0.13900
C3277       C  0.23172347  0.34478626  0.71378187     0.08250
C3278       C  0.22791724  0.34522658  0.75447798    -0.13900
H3279       H  0.24001529  0.34385422  0.81324876     0.12230
H3280       H  0.28144280  0.34642587  0.71817260     0.12230
H3281       H  0.25450146  0.34616351  0.66990603     0.12230
H3282       H  0.21317567  0.34357821  0.76497311     0.12230
C3283       C  0.24967898  0.35226083  0.95334996    -0.13900
C3284       C  0.26861591  0.35018718  0.96922661     0.08250
C3285       C  0.27119479  0.34961990  0.51042837    -0.13900
C3286       C  0.25505984  0.34838268  0.53496429    -0.13900
C3287       C  0.23615094  0.34711816  0.51849687     0.08250
C3288       C  0.23351861  0.35051183  0.97782004    -0.13900
H3289       H  0.24722573  0.35295188  0.92156198     0.12230
H3290       H  0.28559661  0.34831758  0.52343166     0.12230
H3291       H  0.25757707  0.34632138  0.56647958     0.12230
H3292       H  0.21915500  0.34992156  0.96439329     0.12230
C3293       C  0.12680806  0.11166722  0.80999668    -0.13900
C3294       C  0.11025930  0.11905017  0.79014632     0.08250
C3295       C  0.10594709  0.13902415  0.79410226    -0.13900
C3296       C  0.11831464  0.15142227  0.81584420    -0.13900
C3297       C  0.13496258  0.14406865  0.83499545     0.08250
C3298       C  0.13899975  0.12405642  0.83229985    -0.13900
H3299       H  0.13040161  0.09630053  0.80819241     0.12230
H3300       H  0.09323485  0.14517316  0.77967908     0.12230
H3301       H  0.11525938  0.16693927  0.81660798     0.12230
H3302       H  0.15210876  0.11820239  0.84573143     0.12230
C3303       C  0.15436658  0.24552768  0.74514989    -0.13900
C3304       C  0.16721798  0.24785933  0.77734686     0.08250
C3305       C  0.17411928  0.26683458  0.78648613    -0.13900
C3306       C  0.16996384  0.28267962  0.76148920    -0.13900
C3307       C  0.15876314  0.27985477  0.72700059     0.08250
C3308       C  0.15002178  0.26140140  0.72052395    -0.13900
H3309       H  0.14834876  0.23129087  0.73795306     0.12230
H3310       H  0.18372668  0.26925858  0.81169994     0.12230
H3311       H  0.17716959  0.29655120  0.76691026     0.12230
H3312       H  0.14135953  0.25877501  0.69397889     0.12230
C3313       C  0.15419774  0.26764914  0.96917980    -0.13900
C3314       C  0.15505759  0.26637883  0.51050876     0.08250
C3315       C  0.15417692  0.24778053  0.52855321    -0.13900
C3316       C  0.15392503  0.23067970  0.00545609    -0.13900
C3317       C  0.15394989  0.23194024  0.96392576     0.08250
C3318       C  0.15327076  0.25068077  0.94620463    -0.13900
H3319       H  0.15494001  0.28173894  0.95460558     0.12230
H3320       H  0.15508348  0.24642683  0.56056043     0.12230
H3321       H  0.15463684  0.21658616  0.01999148     0.12230
H3322       H  0.15339589  0.25235388  0.91423635     0.12230
C3323       C  0.27013321  0.24827936  0.92511241    -0.13900
C3324       C  0.26464709  0.26788389  0.92110791     0.08250
C3325       C  0.24530828  0.27328101  0.92815462    -0.13900
C3326       C  0.23108177  0.25891208  0.93196286    -0.13900
C3327       C  0.23624712  0.23920728  0.92863015     0.08250
C3328       C  0.25595068  0.23396408  0.92913500    -0.13900
H3329       H  0.28509494  0.24383762  0.92134599     0.12230
H3330       H  0.24083125  0.28841793  0.92645738     0.12230
H3331       H  0.21596338  0.26325245  0.93238510     0.12230
H3332       H  0.26025632  0.21876091  0.92786257     0.12230
C3333       C  0.38003721  0.14885071  0.67298834    -0.13900
C3334       C  0.36147663  0.14209577  0.66143946     0.08250
C3335       C  0.35563340  0.12330280  0.67339923    -0.13900
C3336       C  0.36800231  0.11155816  0.69619449    -0.13900
C3337       C  0.38661381  0.11822782  0.70755683     0.08250
C3338       C  0.39247200  0.13704371  0.69568910    -0.13900
H3339       H  0.38494284  0.16332545  0.66468046     0.12230
H3340       H  0.34135467  0.11769957  0.66558452     0.12230
H3341       H  0.36303605  0.09708870  0.70439722     0.12230
H3342       H  0.40678339  0.14257443  0.70345550     0.12230
C3343       C  0.31701805  0.26490122  0.68985284    -0.13900
C3344       C  0.32939031  0.24864871  0.69359629     0.08250
C3345       C  0.34459806  0.24940241  0.72169205    -0.13900
C3346       C  0.34608235  0.26519356  0.74822176    -0.13900
C3347       C  0.33281156  0.28077381  0.74623759     0.08250
C3348       C  0.31882517  0.28087746  0.71569492    -0.13900
H3349       H  0.30525831  0.26479903  0.66821447     0.12230
H3350       H  0.35431727  0.23710654  0.72528897     0.12230
H3351       H  0.35662539  0.26451781  0.77229379     0.12230
H3352       H  0.30806601  0.29238071  0.71429073     0.12230
C3353       C  0.34912699  0.25173413  0.52842034    -0.13900
C3354       C  0.34833570  0.23293010  0.51142650     0.08250
C3355       C  0.34898928  0.23116740  0.47004276    -0.13900
C3356       C  0.34864476  0.24782583  0.94601877    -0.13900
C3357       C  0.34688723  0.26663098  0.96283102     0.08250
C3358       C  0.34815371  0.26846418  0.00434005    -0.13900
H3359       H  0.34820124  0.25348512  0.56031941     0.12230
H3360       H  0.34806889  0.21688191  0.45622880     0.12230
H3361       H  0.34776923  0.24576536  0.91416730     0.12230
H3362       H  0.34683030  0.28266097  0.01827079     0.12230
C3363       C  0.23508619  0.22350083  0.59505107    -0.13900
C3364       C  0.25192343  0.22718862  0.57309779     0.08250
C3365       C  0.25344030  0.24407658  0.54991600    -0.13900
C3366       C  0.23949539  0.25849808  0.55330189    -0.13900
C3367       C  0.22386484  0.25573116  0.57898249     0.08250
C3368       C  0.22092181  0.23776854  0.59772257    -0.13900
H3369       H  0.23367723  0.21033403  0.61267567     0.12230
H3370       H  0.26630794  0.24703109  0.53261208     0.12230
H3371       H  0.24160426  0.27231205  0.53818286     0.12230
H3372       H  0.20875175  0.23552714  0.61738971     0.12230
C3373       C  0.26558073  0.14424319  0.97453787    -0.13900
C3374       C  0.26505743  0.14949928  0.51462878     0.08250
C3375       C  0.24679894  0.15265637  0.53218699    -0.13900
C3376       C  0.22964950  0.15294128  0.50896129    -0.13900
C3377       C  0.23048822  0.14982469  0.96781560     0.08250
C3378       C  0.24843476  0.14389403  0.95167108    -0.13900
H3379       H  0.27939692  0.14203816  0.96012482     0.12230
H3380       H  0.24605837  0.15715878  0.56298614     0.12230
H3381       H  0.21628806  0.15788243  0.52230914     0.12230
H3382       H  0.24964985  0.14138074  0.92002887     0.10630
C3383       C  0.26768776  0.15959655  0.74903071    -0.13900
C3384       C  0.26443231  0.16234930  0.70856129     0.08250
C3385       C  0.24539735  0.16483875  0.69390695    -0.13900
C3386       C  0.22993139  0.16680944  0.72017661    -0.13900
C3387       C  0.23353182  0.16615766  0.76115233     0.08250
C3388       C  0.25226342  0.16111839  0.77514077    -0.13900
H3389       H  0.28232021  0.15784044  0.76064904     0.12230
H3390       H  0.24282364  0.16726681  0.66249629     0.12230
H3391       H  0.21566805  0.17053742  0.70866739     0.12230
H3392       H  0.25539337  0.16002879  0.80664939     0.12230
loop_ 
_geom_bond_atom_site_label_1 
_geom_bond_atom_site_label_2 
_geom_bond_distance 
_geom_bond_site_symmetry_2 
_ccdc_geom_bond_type 
Zn1           O5   1.897       .  S
Zn1           O6   1.975       .  S
Zn1          O10   1.948       .  S
Zn1          O17   2.003       .  S
Zn2           O5   1.938       .  S
Zn2           O7   2.051       .  S
Zn2           O9   2.005       .  S
Zn2          O13   2.034       .  S
Zn3           O5   1.924       .  S
Zn3           O8   1.975       .  S
Zn3          O11   2.016       .  S
Zn3          O14   1.997       .  S
Zn4           O5   1.941       .  S
Zn4          O12   2.054       .  S
Zn4          O15   2.042       .  S
Zn4          O16   2.064       .  S
O6           C18   1.268       .  A
O7           C19   1.276       .  A
O8           C20   1.268       .  A
O9           C18   1.266       .  A
O10          C20   1.266       .  A
O11          C19   1.273       .  A
O12          C21   1.279       .  A
O13          C22   1.284       .  A
O14          C21   1.274       .  A
O15          C22   1.284       .  A
O16          C23   1.276       .  A
O17          C23   1.270       .  A
C18        C1688   1.453       .  S
C19        C1678   1.484       .  S
C20        C1668   1.447       .  S
C21        C1658   1.477       .  S
C22        C1638   1.486       .  S
C23        C1648   1.486       .  S
Zn24         O28   1.930       .  S
Zn24         O29   2.068       .  S
Zn24         O33   2.084       .  S
Zn24         O40   1.987       .  S
Zn25         O28   1.860       .  S
Zn25         O30   1.955       .  S
Zn25         O32   1.924       .  S
Zn25         O36   1.928       .  S
Zn26         O28   1.884       .  S
Zn26         O31   1.961       .  S
Zn26         O34   1.996       .  S
Zn26         O37   1.943       .  S
Zn27         O28   1.973       .  S
Zn27         O35   2.123       .  S
Zn27         O38   2.140       .  S
Zn27         O39   2.100       .  S
O29          C41   1.279       .  A
O30          C42   1.270       .  A
O31          C43   1.265       .  A
O32          C41   1.265       .  A
O33          C43   1.281       .  A
O34          C42   1.272       .  A
O35          C44   1.282       .  A
O36          C45   1.262       .  A
O37          C44   1.257       .  A
O38          C45   1.287       .  A
O39          C46   1.290       .  A
O40          C46   1.276       .  A
C41        C1691   1.473       .  S
C42        C1631   1.460       .  S
C43        C1608   1.486       .  S
C44        C1621   1.487       .  S
C45        C1681   1.493       .  S
C46        C1601   1.472       .  S
Zn47         O51   1.882       .  S
Zn47         O52   1.981       .  S
Zn47         O56   1.960       .  S
Zn47         O63   1.992       .  S
Zn48         O51   1.926       .  S
Zn48         O53   1.969       .  S
Zn48         O55   2.078       .  S
Zn48         O59   2.057       .  S
Zn49         O51   1.931       .  S
Zn49         O54   2.106       .  S
Zn49         O57   2.122       .  S
Zn49         O60   2.132       .  S
Zn50         O51   1.872       .  S
Zn50         O58   1.939       .  S
Zn50         O61   1.952       .  S
Zn50         O62   1.968       .  S
O52          C64   1.268       .  A
O53          C65   1.275       .  A
O54          C66   1.287       .  A
O55          C64   1.280       .  A
O56          C66   1.270       .  A
O57          C65   1.294       .  A
O58          C67   1.266       .  A
O59          C68   1.278       .  A
O60          C67   1.288       .  A
O61          C68   1.262       .  A
O62          C69   1.269       .  A
O63          C69   1.274       .  A
C64        C1661   1.490       .  S
C65        C1568   1.473       .  S
C66        C1651   1.475       .  S
C67        C1578   1.489       .  S
C68        C1588   1.473       .  S
C69        C1628   1.463       .  S
Zn70         O74   1.903       .  S
Zn70         O75   1.961       .  S
Zn70         O79   1.962       .  S
Zn70         O86   1.904       .  S
Zn71         O74   1.870       .  S
Zn71         O76   1.942       .  S
Zn71         O78   1.951       .  S
Zn71         O82   1.948       .  S
Zn72         O74   1.917       .  S
Zn72         O77   2.068       .  S
Zn72         O80   2.052       .  S
Zn72         O83   1.951       .  S
Zn73         O74   1.932       .  S
Zn73         O81   2.123       .  S
Zn73         O84   2.123       .  S
Zn73         O85   2.118       .  S
O75          C87   1.266       .  A
O76          C88   1.264       .  A
O77          C89   1.279       .  A
O78          C87   1.268       .  A
O79          C89   1.265       .  A
O80          C88   1.277       .  A
O81          C90   1.295       .  A
O82          C91   1.268       .  A
O83          C90   1.273       .  A
O84          C91   1.288       .  A
O85          C92   1.286       .  A
O86          C92   1.262       .  A
C87        C1671   1.441       .  S
C88        C1591   1.476       .  S
C89        C1618   1.478       .  S
C90        C1558   1.476       .  S
C91        C1581   1.484       .  S
C92        C1611   1.477       .  S
Zn93         O97   1.947       .  S
Zn93         O98   2.055       .  S
Zn93        O102   1.954       .  S
Zn93        O109   2.067       .  S
Zn94         O97   1.925       .  S
Zn94         O99   1.938       .  S
Zn94        O101   1.967       .  S
Zn94        O105   1.947       .  S
Zn95         O97   1.963       .  S
Zn95        O100   2.101       .  S
Zn95        O103   2.133       .  S
Zn95        O106   2.098       .  S
Zn96         O97   1.902       .  S
Zn96        O104   1.946       .  S
Zn96        O107   1.940       .  S
Zn96        O108   1.980       .  S
O98         C110   1.275       .  A
O99         C111   1.261       .  A
O100        C112   1.293       .  A
O101        C110   1.265       .  A
O102        C112   1.274       .  A
O103        C111   1.285       .  A
O104        C113   1.266       .  A
O105        C114   1.265       .  A
O106        C113   1.283       .  A
O107        C114   1.267       .  A
O108        C115   1.266       .  A
O109        C115   1.276       .  A
C110       C1548   1.480       .  S
C111       C1541   1.489       .  S
C112       C1498   1.471       .  S
C113       C1518   1.475       .  S
C114       C1531   1.429       .  S
C115       C1508   1.490       .  S
Zn116       O120   1.919       .  S
Zn116       O121   2.046       .  S
Zn116       O125   2.043       .  S
Zn116      O1828   2.054       .  S
Zn117       O120   1.955       .  S
Zn117       O122   1.995       .  S
Zn117       O124   2.022       .  S
Zn117       O128   1.965       .  S
Zn118       O120   1.937       .  S
Zn118       O123   2.051       .  S
Zn118       O126   2.024       .  S
Zn118      O1825   2.092       .  S
Zn119      O1816   1.889       .  S
Zn119       O127   2.013       .  S
Zn119       O130   1.952       .  S
Zn119       O131   2.010       .  S
O120      Zn1815   1.889       .  S
O121        C133   1.272       .  A
O122        C134   1.271       .  A
O123        C135   1.287       .  A
O124        C133   1.271       .  A
O125        C135   1.286       .  A
O126        C134   1.271       .  A
O127        C136   1.274       .  A
O128        C137   1.268       .  A
O129      Zn1814   2.092       .  S
O129        C136   1.284       .  A
O130       C1833   1.269   1_554  A
O131        C138   1.274       .  A
O132      Zn1812   2.054       .  S
O132        C138   1.279       .  A
C133       C1478   1.484       .  S
C134       C1551   1.464       .  S
C135       C1458   1.491       .  S
C136       C1538   1.493       .  S
C137       O1826   1.269       .  A
C137       C1488   1.450       .  S
C138       C1468   1.481       .  S
Zn139       O143   1.949       .  S
Zn139       O148   2.028   1_556  S
Zn139       O155   2.054   1_556  S
Zn139      O1840   2.069       .  S
Zn140      O1839   1.917       .  S
Zn140       O145   2.009       .  S
Zn140       O147   1.977       .  S
Zn140       O151   1.966       .  S
Zn141       O143   1.936       .  S
Zn141       O146   2.035   1_556  S
Zn141       O152   2.020   1_556  S
Zn141      O1845   2.075       .  S
Zn142       O143   1.921   1_554  S
Zn142       O150   2.012       .  S
Zn142       O153   1.950       .  S
Zn142       O154   2.007       .  S
O143      Zn1836   1.917       .  S
O144      Zn1835   2.069       .  S
O144        C156   1.280       .  A
O145        C157   1.272       .  A
O146        C158   1.284       .  A
O147        C156   1.271       .  A
O148        C158   1.284       .  A
O149      Zn1837   2.075       .  S
O149        C157   1.279       .  A
O150        C159   1.272       .  A
O151        C160   1.268       .  A
O152        C159   1.270       .  A
O153       C1856   1.268   1_554  A
O154        C161   1.270       .  A
O155        C161   1.273       .  A
C156       C1511   1.472       .  S
C157       C1438   1.493       .  S
C158       C1428   1.483       .  S
C159       C1451   1.472       .  S
C160       O1849   1.268       .  A
C160       C1491   1.453   1_565  S
C161       C1521   1.477       .  S
Zn162       O166   1.957       .  S
Zn162       O167   2.031       .  S
Zn162       O171   2.087       .  S
Zn162       O178   2.039       .  S
Zn163       O166   1.948       .  S
Zn163       O168   2.058       .  S
Zn163       O170   2.049       .  S
Zn163       O174   2.060       .  S
Zn164       O166   1.922       .  S
Zn164       O169   2.002       .  S
Zn164       O172   1.998       .  S
Zn164       O175   1.935       .  S
Zn165       O166   1.954       .  S
Zn165       O173   1.952       .  S
Zn165       O176   2.006       .  S
Zn165       O177   1.982       .  S
O167        C179   1.285       .  A
O168        C180   1.278       .  A
O169        C181   1.270       .  A
O170        C179   1.286       .  A
O171        C181   1.280       .  A
O172        C180   1.271       .  A
O173        C182   1.267       .  A
O174        C183   1.272       .  A
O175        C182   1.265       .  A
O176        C183   1.267       .  A
O177        C184   1.267       .  A
O178        C184   1.272       .  A
C179       C1641   1.486       .  S
C180       C1481   1.481       .  S
C181       C1441   1.487       .  S
C182       C1528   1.436       .  S
C183       C1471   1.480       .  S
C184       C1448   1.465       .  S
Zn185       O189   1.941       .  S
Zn185       O190   2.038       .  S
Zn185       O194   2.093       .  S
Zn185       O201   2.030       .  S
Zn186       O189   1.964       .  S
Zn186       O191   1.955       .  S
Zn186       O193   2.006       .  S
Zn186       O197   2.026       .  S
Zn187       O189   1.894       .  S
Zn187       O192   2.004       .  S
Zn187       O195   1.932       .  S
Zn187       O198   1.995       .  S
Zn188       O189   1.935       .  S
Zn188       O196   2.067       .  S
Zn188       O199   2.054       .  S
Zn188       O200   2.039       .  S
O190        C202   1.272       .  A
O191        C203   1.268       .  A
O192        C204   1.271       .  A
O193        C202   1.270       .  A
O194        C204   1.282       .  A
O195        C203   1.268       .  A
O196        C205   1.280       .  A
O197        C206   1.270       .  A
O198        C205   1.271       .  A
O199        C206   1.272       .  A
O200        C207   1.286       .  A
O201        C207   1.285       .  A
C202       C1418   1.475       .  S
C203       C1398   1.442       .  S
C204       C1408   1.488       .  S
C205       C1388   1.481       .  S
C206       C1378   1.486       .  S
C207       C1368   1.484       .  S
Zn208      O1908   1.950       .  S
Zn208       O213   2.038   1_556  S
Zn208       O224   2.045   1_556  S
Zn208      O1913   2.091       .  S
Zn209      O1908   1.964   1_554  S
Zn209       O214   1.966       .  S
Zn209       O216   2.009       .  S
Zn209       O220   2.010       .  S
Zn210       O212   1.902       .  S
Zn210       O215   1.998       .  S
Zn210       O218   1.939       .  S
Zn210       O221   1.994       .  S
Zn211      O1908   1.946       .  S
Zn211       O222   2.068   1_556  S
Zn211       O223   2.041   1_556  S
Zn211      O1915   2.076       .  S
O212      Zn1904   1.950       .  S
O212      Zn1905   1.964       .  S
O212      Zn1907   1.946       .  S
O213        C225   1.272       .  A
O214       C1922   1.268       .  A
O215        C227   1.270       .  A
O216        C225   1.270       .  A
O217      Zn1904   2.091       .  S
O217        C227   1.280       .  A
O218        C226   1.268       .  A
O219      Zn1907   2.076       .  S
O219        C228   1.281       .  A
O220        C229   1.270       .  A
O221        C228   1.271       .  A
O222        C229   1.275       .  A
O223        C230   1.286       .  A
O224        C230   1.286       .  A
C225       C1421   1.479       .  S
C226       O1910   1.268       .  A
C226       C1358   1.445       .  S
C227       C1411   1.489       .  S
C228       C1348   1.478       .  S
C229       C1341   1.484       .  S
C230       C1328   1.487       .  S
Zn231       O235   1.960       .  S
Zn231       O236   2.046       .  S
Zn231       O240   2.061       .  S
Zn231      O1943   2.065       .  S
Zn232       O235   1.968       .  S
Zn232       O237   2.038       .  S
Zn232       O239   2.040       .  S
Zn232      O1939   2.094       .  S
Zn233       O235   1.950       .  S
Zn233       O238   2.007       .  S
Zn233       O241   1.997       .  S
Zn233       O244   1.948       .  S
Zn234      O1931   1.947   1_554  S
Zn234       O242   1.952       .  S
Zn234       O245   2.004       .  S
Zn234       O246   2.000       .  S
O235      Zn1930   1.947       .  S
O236        C248   1.286       .  A
O237        C249   1.272       .  A
O238        C250   1.268       .  A
O239        C248   1.285       .  A
O240        C250   1.273       .  A
O241        C249   1.269       .  A
O242       C1947   1.266       .  A
O243      Zn1928   2.094   1_554  S
O243        C252   1.281       .  A
O244        C251   1.268       .  A
O245        C252   1.270       .  A
O246        C253   1.271       .  A
O247      Zn1927   2.065   1_554  S
O247        C253   1.279       .  A
C248       C1298   1.489       .  S
C249       C1308   1.470       .  S
C250       C1391   1.480       .  S
C251       O1938   1.266       .  A
C251       C1361   1.446       .  S
C252       C1318   1.489       .  S
C253       C1381   1.485       .  S
Zn254       O258   1.966       .  S
Zn254       O259   2.051       .  S
Zn254       O263   2.073       .  S
Zn254       O270   2.088       .  S
Zn255       O258   1.959       .  S
Zn255       O260   2.040       .  S
Zn255       O262   2.043       .  S
Zn255       O266   2.088       .  S
Zn256       O258   1.946       .  S
Zn256       O261   1.992       .  S
Zn256       O264   1.994       .  S
Zn256       O267   1.944       .  S
Zn257       O258   1.930       .  S
Zn257       O265   1.943       .  S
Zn257       O268   2.002       .  S
Zn257       O269   1.983       .  S
O259        C271   1.287       .  A
O260        C272   1.270       .  A
O261        C273   1.267       .  A
O262        C271   1.286       .  A
O263        C273   1.274       .  A
O264        C272   1.267       .  A
O265        C274   1.266       .  A
O266        C275   1.280       .  A
O267        C274   1.268       .  A
O268        C275   1.270       .  A
O269        C276   1.269       .  A
O270        C276   1.282       .  A
C271       C1598   1.488       .  S
C272       C1311   1.471       .  S
C273       C1351   1.479       .  S
C274       C1401   1.444       .  S
C275       C1321   1.492       .  S
C276       C1338   1.482       .  S
Zn277       O281   1.937       .  S
Zn277       O282   2.051       .  S
Zn277       O286   2.064       .  S
Zn277       O293   2.061       .  S
Zn278       O281   1.938       .  S
Zn278       O283   2.077       .  S
Zn278       O285   2.044       .  S
Zn278       O289   2.022       .  S
Zn279       O281   1.904       .  S
Zn279       O284   2.002       .  S
Zn279       O287   2.006       .  S
Zn279       O290   1.954       .  S
Zn280       O281   1.958       .  S
Zn280       O288   1.956       .  S
Zn280       O291   2.002       .  S
Zn280       O292   2.002       .  S
O282        C294   1.287       .  A
O283        C295   1.280       .  A
O284        C296   1.274       .  A
O285        C294   1.286       .  A
O286        C296   1.281       .  A
O287        C295   1.271       .  A
O288        C297   1.267       .  A
O289        C298   1.269       .  A
O290        C297   1.268       .  A
O291        C298   1.269       .  A
O292        C299   1.268       .  A
O293        C299   1.273       .  A
C294       C1461   1.491       .  S
C295       C1291   1.486       .  S
C296       C1268   1.476       .  S
C297       C1248   1.436       .  S
C298       C1278   1.468       .  S
C299       C1261   1.478       .  S
Zn300       O304   1.947       .  S
Zn300       O305   2.060       .  S
Zn300       O309   2.039       .  S
Zn300       O316   2.057       .  S
Zn301       O304   1.915       .  S
Zn301       O306   2.012       .  S
Zn301       O308   2.013       .  S
Zn301       O312   1.952       .  S
Zn302       O304   1.930       .  S
Zn302       O307   2.040       .  S
Zn302       O310   2.012       .  S
Zn302       O313   2.064       .  S
Zn303       O304   1.933       .  S
Zn303       O311   2.021       .  S
Zn303       O314   1.978       .  S
Zn303       O315   1.990       .  S
O305        C317   1.276       .  A
O306        C318   1.273       .  A
O307        C319   1.284       .  A
O308        C317   1.272       .  A
O309        C319   1.284       .  A
O310        C318   1.270       .  A
O311        C320   1.274       .  A
O312        C321   1.268       .  A
O313        C320   1.277       .  A
O314        C321   1.269       .  A
O315        C322   1.272       .  A
O316        C322   1.279       .  A
C317       C1218   1.486       .  S
C318       C1281   1.470       .  S
C319       C1331   1.487       .  S
C320       C1288   1.493       .  S
C321       C1238   1.455       .  S
C322       C1228   1.471       .  S
Zn323       O327   1.947       .  S
Zn323       O328   2.016       .  S
Zn323       O332   1.987       .  S
Zn323       O339   1.968       .  S
Zn324       O327   1.922       .  S
Zn324       O329   2.046       .  S
Zn324       O331   2.047       .  S
Zn324       O335   2.059       .  S
Zn325       O327   1.936       .  S
Zn325       O330   2.032       .  S
Zn325       O333   2.067       .  S
Zn325       O336   2.095       .  S
Zn326       O327   1.889       .  S
Zn326       O334   2.017       .  S
Zn326       O337   2.006       .  S
Zn326       O338   1.967       .  S
O328        C340   1.271       .  A
O329        C341   1.286       .  A
O330        C342   1.272       .  A
O331        C340   1.273       .  A
O332        C342   1.270       .  A
O333        C341   1.288       .  A
O334        C343   1.275       .  A
O335        C344   1.280       .  A
O336        C343   1.285       .  A
O337        C344   1.274       .  A
O338        C345   1.271       .  A
O339        C345   1.267       .  A
C340       C1271   1.485       .  S
C341       C1188   1.496       .  S
C342       C1211   1.465       .  S
C343       C1198   1.490       .  S
C344       C1258   1.481       .  S
C345       C1241   1.453       .  S
Zn346       O350   1.942       .  S
Zn346       O351   1.963       .  S
Zn346       O355   1.946       .  S
Zn346       O362   1.964       .  S
Zn347       O350   1.916       .  S
Zn347       O352   1.953       .  S
Zn347       O354   1.940       .  S
Zn347       O358   1.955       .  S
Zn348       O350   1.978       .  S
Zn348       O353   2.097       .  S
Zn348       O356   2.125       .  S
Zn348       O359   2.106       .  S
Zn349       O350   1.964       .  S
Zn349       O357   1.979       .  S
Zn349       O360   2.061       .  S
Zn349       O361   2.080       .  S
O351        C363   1.266       .  A
O352        C364   1.263       .  A
O353        C365   1.282       .  A
O354        C363   1.265       .  A
O355        C365   1.263       .  A
O356        C364   1.284       .  A
O357        C366   1.275       .  A
O358        C367   1.266       .  A
O359        C366   1.291       .  A
O360        C367   1.276       .  A
O361        C368   1.278       .  A
O362        C368   1.265       .  A
C363       C1251   1.438       .  S
C364       C1201   1.491       .  S
C365       C1221   1.481       .  S
C366       C1178   1.469       .  S
C367       C1208   1.478       .  S
C368       C1231   1.490       .  S
Zn369       O373   1.903       .  S
Zn369       O374   2.029       .  S
Zn369       O385   2.026       .  S
Zn369      O2074   2.041       .  S
Zn370       O373   1.921       .  S
Zn370       O377   2.063       .  S
Zn370       O381   2.008       .  S
Zn370      O2071   2.085       .  S
Zn371      O2069   1.878   1_554  S
Zn371       O376   2.005       .  S
Zn371       O379   2.018       .  S
Zn371       O382   1.977       .  S
Zn372       O373   1.950       .  S
Zn372       O380   1.963       .  S
Zn372       O383   1.997       .  S
Zn372       O384   2.024       .  S
O373      Zn2067   1.878       .  S
O374        C386   1.284       .  A
O375      Zn2066   2.085       .  S
O375        C387   1.286       .  A
O376        C388   1.274       .  A
O377        C386   1.288       .  A
O378      Zn2065   2.041   1_554  S
O378        C388   1.278       .  A
O379        C387   1.276       .  A
O380        C389   1.267       .  A
O381        C390   1.269       .  A
O382       C2085   1.271   1_554  A
O383        C390   1.271       .  A
O384        C391   1.273       .  A
O385        C391   1.270       .  A
C386       C1571   1.492       .  S
C387       C1158   1.493       .  S
C388       C1141   1.473       .  S
C389       O2078   1.271       .  A
C389       C1148   1.448       .  S
C390       C1171   1.460       .  S
C391       C1128   1.479       .  S
Zn392       O396   1.947       .  S
Zn392       O397   1.942       .  S
Zn392       O401   1.988       .  S
Zn392       O408   1.980       .  S
Zn393       O396   1.939       .  S
Zn393       O398   2.062       .  S
Zn393       O400   2.061       .  S
Zn393       O404   1.988       .  S
Zn394       O396   1.903       .  S
Zn394       O399   1.959       .  S
Zn394       O402   1.980       .  S
Zn394       O405   1.931       .  S
Zn395       O396   1.956       .  S
Zn395       O403   2.092       .  S
Zn395       O406   2.106       .  S
Zn395       O407   2.097       .  S
O397        C409   1.265       .  A
O398        C410   1.278       .  A
O399        C411   1.268       .  A
O400        C409   1.278       .  A
O401        C411   1.268       .  A
O402        C410   1.269       .  A
O403        C412   1.281       .  A
O404        C413   1.275       .  A
O405        C412   1.263       .  A
O406        C413   1.291       .  A
O407        C414   1.280       .  A
O408        C414   1.264       .  A
C409       C1168   1.478       .  S
C410       C1098   1.485       .  S
C411       C1121   1.447       .  S
C412       C1108   1.475       .  S
C413       C1091   1.474       .  S
C414       C1161   1.496       .  S
Zn415       O419   1.914       .  S
Zn415       O420   2.048       .  S
Zn415       O424   2.030       .  S
Zn415       O431   2.050       .  S
Zn416       O419   1.930       .  S
Zn416       O421   2.015       .  S
Zn416       O423   2.061       .  S
Zn416       O427   2.083       .  S
Zn417       O419   1.952       .  S
Zn417       O422   2.018       .  S
Zn417       O425   1.995       .  S
Zn417       O428   1.976       .  S
Zn418       O419   1.885       .  S
Zn418       O426   1.974       .  S
Zn418       O429   2.012       .  S
Zn418       O430   1.998       .  S
O420        C432   1.286       .  A
O421        C433   1.270       .  A
O422        C434   1.272       .  A
O423        C432   1.287       .  A
O424        C434   1.271       .  A
O425        C433   1.271       .  A
O426        C435   1.270       .  A
O427        C436   1.284       .  A
O428        C435   1.268       .  A
O429        C436   1.275       .  A
O430        C437   1.273       .  A
O431        C437   1.279       .  A
C432       C1191   1.496       .  S
C433       C1078   1.461       .  S
C434       C1138   1.477       .  S
C435       C1118   1.451       .  S
C436       C1068   1.491       .  S
C437       C1131   1.473       .  S
Zn438       O442   1.901       .  S
Zn438       O443   1.936       .  S
Zn438       O454   1.958       .  S
Zn438      O2143   1.987       .  S
Zn439       O442   1.952       .  S
Zn439       O444   2.080       .  S
Zn439       O446   2.079       .  S
Zn439       O450   2.091       .  S
Zn440      O2138   1.936   1_554  S
Zn440       O445   2.065       .  S
Zn440       O448   1.990       .  S
Zn440       O451   2.071       .  S
Zn441       O442   1.946       .  S
Zn441       O452   1.982       .  S
Zn441       O453   1.980       .  S
Zn441      O2145   1.941       .  S
O442      Zn2136   1.936       .  S
O443        C455   1.264       .  A
O444       C2152   1.288       .  A
O445        C457   1.279       .  A
O446        C455   1.280       .  A
O447      Zn2134   1.987   1_554  S
O447        C457   1.270       .  A
O448        C456   1.276       .  A
O449      Zn2137   1.941   1_554  S
O449        C458   1.265       .  A
O450        C459   1.279       .  A
O451        C458   1.279       .  A
O452        C459   1.264       .  A
O453        C460   1.267       .  A
O454        C460   1.269       .  A
C455       C1101   1.473       .  S
C456       O2140   1.288   1_554  A
C456       C1058   1.466       .  S
C457       C1111   1.488       .  S
C458       C1081   1.480       .  S
C459       C1071   1.495       .  S
C460       C1151   1.443       .  S
Zn461       O465   1.922       .  S
Zn461       O466   2.097       .  S
Zn461       O470   2.101       .  S
Zn461       O477   2.079       .  S
Zn462       O465   1.892       .  S
Zn462       O467   2.015       .  S
Zn462       O469   1.949       .  S
Zn462       O473   2.038       .  S
Zn463       O465   1.885       .  S
Zn463       O468   1.953       .  S
Zn463       O471   1.983       .  S
Zn463       O474   1.954       .  S
Zn464       O465   1.953       .  S
Zn464       O472   1.998       .  S
Zn464       O475   2.007       .  S
Zn464       O476   1.982       .  S
O466        C478   1.291       .  A
O467        C479   1.272       .  A
O468        C480   1.266       .  A
O469        C478   1.273       .  A
O470        C480   1.284       .  A
O471        C479   1.270       .  A
O472        C481   1.270       .  A
O473        C482   1.275       .  A
O474        C481   1.270       .  A
O475        C482   1.268       .  A
O476        C483   1.268       .  A
O477        C483   1.281       .  A
C478       C1501   1.475       .  S
C479       C1048   1.473       .  S
C480       C1038   1.482       .  S
C481       C1008   1.442       .  S
C482       C1018   1.468       .  S
C483       C1028   1.488       .  S
Zn484       O488   1.923       .  S
Zn484       O489   1.952       .  S
Zn484       O493   2.038       .  S
Zn484       O500   2.026       .  S
Zn485       O488   1.951       .  S
Zn485       O490   2.110       .  S
Zn485       O492   2.097       .  S
Zn485       O496   2.117       .  S
Zn486       O488   1.914       .  S
Zn486       O491   1.986       .  S
Zn486       O494   1.939       .  S
Zn486       O497   1.974       .  S
Zn487       O488   1.895       .  S
Zn487       O495   1.963       .  S
Zn487       O498   1.946       .  S
Zn487       O499   1.960       .  S
O489        C501   1.273       .  A
O490        C502   1.285       .  A
O491        C503   1.265       .  A
O492        C501   1.290       .  A
O493        C503   1.273       .  A
O494        C502   1.266       .  A
O495        C504   1.269       .  A
O496        C505   1.286       .  A
O497        C504   1.270       .  A
O498        C505   1.267       .  A
O499        C506   1.264       .  A
O500        C506   1.272       .  A
C501       C1371   1.461       .  S
C502        C988   1.481       .  S
C503        C978   1.482       .  S
C504        C998   1.456       .  S
C505       C1041   1.485       .  S
C506       C1051   1.473       .  S
Zn507       O511   1.942       .  S
Zn507       O512   2.032       .  S
Zn507       O516   2.076       .  S
Zn507       O523   2.004       .  S
Zn508       O511   1.946       .  S
Zn508       O513   2.062       .  S
Zn508       O515   2.040       .  S
Zn508       O519   2.056       .  S
Zn509       O511   1.923       .  S
Zn509       O514   1.986       .  S
Zn509       O517   1.971       .  S
Zn509       O520   1.981       .  S
Zn510       O511   1.899       .  S
Zn510       O518   1.963       .  S
Zn510       O521   2.019       .  S
Zn510       O522   1.998       .  S
O512        C524   1.284       .  A
O513        C525   1.276       .  A
O514        C526   1.268       .  A
O515        C524   1.285       .  A
O516        C526   1.278       .  A
O517        C525   1.269       .  A
O518        C527   1.269       .  A
O519        C528   1.277       .  A
O520        C527   1.268       .  A
O521        C528   1.274       .  A
O522        C529   1.271       .  A
O523        C529   1.269       .  A
C524       C1061   1.485       .  S
C525       C1021   1.481       .  S
C526        C968   1.480       .  S
C527       C1001   1.445       .  S
C528       C1031   1.488       .  S
C529        C958   1.459       .  S
Zn530       O534   1.930       .  S
Zn530       O535   2.000       .  S
Zn530       O539   1.960       .  S
Zn530       O546   2.002       .  S
Zn531       O534   1.917       .  S
Zn531       O536   2.057       .  S
Zn531       O538   2.006       .  S
Zn531       O542   2.021       .  S
Zn532       O534   1.881       .  S
Zn532       O537   1.990       .  S
Zn532       O540   2.017       .  S
Zn532       O543   2.003       .  S
Zn533       O534   1.922       .  S
Zn533       O541   2.042       .  S
Zn533       O544   2.033       .  S
Zn533       O545   2.048       .  S
O535        C547   1.271       .  A
O536        C548   1.279       .  A
O537        C549   1.273       .  A
O538        C547   1.269       .  A
O539        C549   1.267       .  A
O540        C548   1.275       .  A
O541        C550   1.280       .  A
O542        C551   1.282       .  A
O543        C550   1.276       .  A
O544        C551   1.284       .  A
O545        C552   1.272       .  A
O546        C552   1.270       .  A
C547        C961   1.464       .  S
C548        C971   1.484       .  S
C549       C1011   1.456       .  S
C550        C981   1.468       .  S
C551        C948   1.482       .  S
C552        C991   1.473       .  S
Zn553       O557   1.961       .  S
Zn553       O558   2.044       .  S
Zn553       O562   2.024       .  S
Zn553       O569   1.956       .  S
Zn554       O557   1.902       .  S
Zn554       O559   2.038       .  S
Zn554       O561   2.030       .  S
Zn554       O565   2.038       .  S
Zn555       O557   1.906       .  S
Zn555       O560   2.009       .  S
Zn555       O563   2.045       .  S
Zn555       O566   2.076       .  S
Zn556       O557   1.865       .  S
Zn556       O564   2.024       .  S
Zn556       O567   1.997       .  S
Zn556       O568   1.955       .  S
O558        C570   1.276       .  A
O559        C571   1.285       .  A
O560        C572   1.270       .  A
O561        C570   1.269       .  A
O562        C572   1.276       .  A
O563        C571   1.286       .  A
O564        C573   1.276       .  A
O565        C574   1.278       .  A
O566        C573   1.283       .  A
O567        C574   1.273       .  A
O568        C575   1.270       .  A
O569        C575   1.265       .  A
C570        C918   1.485       .  S
C571       C1181   1.489       .  S
C572        C938   1.472       .  S
C573        C928   1.489       .  S
C574        C911   1.468       .  S
C575        C901   1.440       .  S
Zn576      O2276   1.960   1_554  S
Zn576       O581   2.092       .  S
Zn576       O585   2.101       .  S
Zn576       O592   2.125       .  S
Zn577       O580   1.951       .  S
Zn577       O582   2.086       .  S
Zn577       O584   1.977       .  S
Zn577       O588   2.080       .  S
Zn578       O580   1.895       .  S
Zn578       O586   1.971       .  S
Zn578       O589   1.927       .  S
Zn578      O2279   1.934       .  S
Zn579       O580   1.908       .  S
Zn579       O587   1.942       .  S
Zn579       O590   1.959       .  S
Zn579      O2287   1.941       .  S
O580      Zn2272   1.960       .  S
O581       C2289   1.292   1_554  A
O582        C594   1.278       .  A
O583      Zn2274   1.934       .  S
O583        C595   1.263       .  A
O584        C593   1.277       .  A
O585        C595   1.283       .  A
O586        C594   1.266       .  A
O587        C596   1.267       .  A
O588        C597   1.278       .  A
O589        C596   1.266       .  A
O590        C597   1.263       .  A
O591      Zn2275   1.941   1_554  S
O591        C598   1.261       .  A
O592        C598   1.284       .  A
C593       O2277   1.292       .  A
C593        C951   1.462       .  S
C594        C878   1.493       .  S
C595        C868   1.474       .  S
C596        C891   1.439       .  S
C597        C941   1.484       .  S
C598        C931   1.487       .  S
Zn599      O2299   1.958   1_554  S
Zn599       O604   1.952       .  S
Zn599       O608   2.071       .  S
Zn599       O615   2.047       .  S
Zn600       O603   1.996       .  S
Zn600       O605   2.152       .  S
Zn600       O607   2.127       .  S
Zn600       O611   2.175       .  S
Zn601       O603   1.912       .  S
Zn601       O609   1.897       .  S
Zn601       O612   1.928       .  S
Zn601      O2302   1.955       .  S
Zn602       O603   1.905       .  S
Zn602       O610   1.923       .  S
Zn602       O613   1.907       .  S
Zn602      O2310   1.936       .  S
O603      Zn2295   1.958       .  S
O604        C616   1.273       .  A
O605        C617   1.287       .  A
O606      Zn2297   1.955   1_554  S
O606        C618   1.262       .  A
O607       C2312   1.295       .  A
O608        C618   1.277       .  A
O609        C617   1.259       .  A
O610        C619   1.263       .  A
O611        C620   1.289       .  A
O612        C619   1.262       .  A
O613        C620   1.258       .  A
O614      Zn2298   1.936   1_554  S
O614        C621   1.260       .  A
O615        C621   1.274       .  A
C616       O2303   1.295   1_554  A
C616       C1561   1.473       .  S
C617        C921   1.487       .  S
C618        C908   1.486       .  S
C619        C888   1.441       .  S
C620        C848   1.499       .  S
C621        C858   1.475       .  S
Zn622       O626   1.961       .  S
Zn622       O627   1.974       .  S
Zn622       O631   2.001       .  S
Zn622       O638   2.031       .  S
Zn623       O626   1.913       .  S
Zn623       O628   2.013       .  S
Zn623       O630   1.931       .  S
Zn623       O634   1.992       .  S
Zn624       O626   1.948       .  S
Zn624       O629   2.054       .  S
Zn624       O632   2.054       .  S
Zn624       O635   2.040       .  S
Zn625       O626   1.940       .  S
Zn625       O633   2.041       .  S
Zn625       O636   1.994       .  S
Zn625       O637   2.062       .  S
O627        C639   1.265       .  A
O628        C640   1.271       .  A
O629        C641   1.278       .  A
O630        C639   1.265       .  A
O631        C641   1.274       .  A
O632        C640   1.275       .  A
O633        C642   1.285       .  A
O634        C643   1.270       .  A
O635        C642   1.284       .  A
O636        C643   1.266       .  A
O637        C644   1.275       .  A
O638        C644   1.275       .  A
C639        C898   1.442       .  S
C640        C871   1.484       .  S
C641        C881   1.479       .  S
C642        C838   1.488       .  S
C643        C861   1.455       .  S
C644        C851   1.494       .  S
Zn645       O649   1.957       .  S
Zn645       O650   2.047       .  S
Zn645       O654   2.070       .  S
Zn645       O661   1.969       .  S
Zn646       O649   1.923       .  S
Zn646       O651   1.943       .  S
Zn646       O653   1.963       .  S
Zn646       O657   1.950       .  S
Zn647       O649   1.939       .  S
Zn647       O652   1.969       .  S
Zn647       O655   1.949       .  S
Zn647       O658   1.941       .  S
Zn648       O649   1.984       .  S
Zn648       O656   2.102       .  S
Zn648       O659   2.123       .  S
Zn648       O660   2.090       .  S
O650        C662   1.274       .  A
O651        C663   1.266       .  A
O652        C664   1.264       .  A
O653        C662   1.266       .  A
O654        C664   1.276       .  A
O655        C663   1.265       .  A
O656        C665   1.282       .  A
O657        C666   1.263       .  A
O658        C665   1.263       .  A
O659        C666   1.283       .  A
O660        C667   1.289       .  A
O661        C667   1.274       .  A
C662        C828   1.475       .  S
C663        C808   1.436       .  S
C664        C788   1.487       .  S
C665        C801   1.482       .  S
C666        C818   1.491       .  S
C667       C1431   1.462       .  S
Zn668       O672   1.932       .  S
Zn668       O673   2.041       .  S
Zn668       O677   2.052       .  S
Zn668       O684   2.054       .  S
Zn669       O672   1.949       .  S
Zn669       O674   2.034       .  S
Zn669       O676   2.043       .  S
Zn669       O680   2.088       .  S
Zn670       O672   1.924       .  S
Zn670       O675   2.010       .  S
Zn670       O678   1.984       .  S
Zn670       O681   1.958       .  S
Zn671       O672   1.913       .  S
Zn671       O679   1.966       .  S
Zn671       O682   2.006       .  S
Zn671       O683   2.012       .  S
O673        C685   1.285       .  A
O674        C686   1.272       .  A
O675        C687   1.271       .  A
O676        C685   1.285       .  A
O677        C687   1.272       .  A
O678        C686   1.269       .  A
O679        C688   1.269       .  A
O680        C689   1.283       .  A
O681        C688   1.268       .  A
O682        C689   1.273       .  A
O683        C690   1.274       .  A
O684        C690   1.278       .  A
C685       C1301   1.489       .  S
C686        C831   1.462       .  S
C687        C758   1.482       .  S
C688        C778   1.456       .  S
C689        C821   1.485       .  S
C690        C768   1.486       .  S
Zn691       O695   1.928       .  S
Zn691       O696   2.058       .  S
Zn691       O700   2.018       .  S
Zn691       O707   2.084       .  S
Zn692       O695   1.941       .  S
Zn692       O697   2.050       .  S
Zn692       O699   2.040       .  S
Zn692       O703   2.067       .  S
Zn693       O695   1.938       .  S
Zn693       O698   2.015       .  S
Zn693       O701   2.013       .  S
Zn693       O704   1.957       .  S
Zn694       O695   1.899       .  S
Zn694       O702   1.964       .  S
Zn694       O705   1.989       .  S
Zn694       O706   2.007       .  S
O696        C708   1.287       .  A
O697        C709   1.273       .  A
O698        C710   1.273       .  A
O699        C708   1.285       .  A
O700        C710   1.271       .  A
O701        C709   1.272       .  A
O702        C711   1.269       .  A
O703        C712   1.281       .  A
O704        C711   1.266       .  A
O705        C712   1.272       .  A
O706        C713   1.273       .  A
O707        C713   1.281       .  A
C708       C1088   1.492       .  S
C709        C798   1.477       .  S
C710        C748   1.476       .  S
C711        C781   1.455       .  S
C712        C791   1.473       .  S
C713        C738   1.490       .  S
Zn714       O718   1.935       .  S
Zn714       O719   2.035       .  S
Zn714       O723   2.025       .  S
Zn714       O730   2.081       .  S
Zn715       O718   1.938       .  S
Zn715       O720   2.062       .  S
Zn715       O722   2.054       .  S
Zn715       O726   2.067       .  S
Zn716       O718   1.965       .  S
Zn716       O721   2.009       .  S
Zn716       O724   2.011       .  S
Zn716       O727   1.955       .  S
Zn717       O718   1.899       .  S
Zn717       O725   1.942       .  S
Zn717       O728   1.993       .  S
Zn717       O729   2.008       .  S
O719        C731   1.285       .  A
O720        C732   1.274       .  A
O721        C733   1.271       .  A
O722        C731   1.287       .  A
O723        C733   1.270       .  A
O724        C732   1.269       .  A
O725        C734   1.267       .  A
O726        C735   1.281       .  A
O727        C734   1.266       .  A
O728        C735   1.272       .  A
O729        C736   1.271       .  A
O730        C736   1.280       .  A
C731        C841   1.489       .  S
C732        C771   1.482       .  S
C733        C751   1.475       .  S
C734        C811   1.433       .  S
C735        C761   1.475       .  S
C736        C741   1.487       .  S
C737        C742   1.404       .  A
C737       C2434   1.404   1_554  A
C737        H743   1.083       .  S
C738        C739   1.412       .  A
C738       C2433   1.404       .  A
C739        C740   1.411       .  A
C739        H744   1.083       .  S
C740       C2437   1.404       .  A
C740        H745   1.083       .  S
C741        C742   1.408       .  A
C741       C2436   1.404   1_554  A
C742        H746   1.084       .  S
C747        C748   1.402       .  A
C747        C752   1.400       .  A
C747        H753   1.083       .  S
C748        C749   1.408       .  A
C749        C750   1.398       .  A
C749        H754   1.083       .  S
C750        C751   1.401       .  A
C750        H755   1.083       .  S
C751        C752   1.407       .  A
C752        H756   1.083       .  S
C757        C758   1.409       .  A
C757        C762   1.406       .  A
C757        H763   1.083       .  S
C758       C2455   1.402       .  A
C759        C760   1.399       .  A
C759       C2454   1.402   1_554  A
C759        H764   1.083       .  S
C760        C761   1.405       .  A
C760        H765   1.084       .  S
C761       C2458   1.403   1_554  A
C762       C2457   1.403       .  A
C762        H766   1.083       .  S
C767        C768   1.409       .  A
C767        C772   1.404       .  A
C767        H773   1.083       .  S
C768        C769   1.406       .  A
C769        C770   1.405       .  A
C769        H774   1.083       .  S
C770        C771   1.406       .  A
C770        H775   1.083       .  S
C771        C772   1.403       .  A
C772        H776   1.083       .  S
C777        C778   1.402       .  A
C777        C782   1.385       .  A
C777        H783   1.083       .  S
C778        C779   1.402       .  A
C779        C780   1.386       .  A
C779        H784   1.083       .  S
C780        C781   1.402       .  A
C780        H785   1.083       .  S
C781        C782   1.401       .  A
C782        H786   1.083       .  S
C787        C792   1.400       .  A
C787       C2484   1.403       .  A
C787        H793   1.083       .  S
C788        C789   1.413       .  A
C788       C2483   1.403   1_554  A
C789       C2486   1.402   1_554  A
C789        H794   1.083       .  S
C790        C791   1.399       .  A
C790       C2485   1.402       .  A
C790        H795   1.083       .  S
C791        C792   1.406       .  A
C792        H796   1.084       .  S
C797        C798   1.406       .  A
C797        C802   1.403       .  A
C797        H803   1.083       .  S
C798        C799   1.400       .  A
C799        C800   1.403       .  A
C799        H804   1.083       .  S
C800        C801   1.412       .  A
C800        H805   1.083       .  S
C801        C802   1.404       .  A
C802        H806   1.083       .  S
C807        C808   1.397       .  A
C807        C812   1.382       .  A
C807        H813   1.084       .  S
C808        C809   1.400       .  A
C809        C810   1.384       .  A
C809        H814   1.084       .  S
C810        C811   1.397       .  A
C810        H815   1.084       .  S
C811        C812   1.398       .  A
C812        H816   1.084       .  S
C817        C818   1.404       .  A
C817        C822   1.408       .  A
C817        H823   1.083       .  S
C818        C819   1.413       .  A
C819        C820   1.405       .  A
C819        H824   1.083       .  S
C820        C821   1.400       .  A
C820        H825   1.083       .  S
C821        C822   1.410       .  A
C822        H826   1.083       .  S
C827        C828   1.409       .  A
C827        C832   1.395   1_554  A
C827        H833   1.083       .  S
C828       C2525   1.403   1_554  A
C829        C830   1.399       .  A
C829       C2524   1.403       .  A
C829        H834   1.083       .  S
C830        C831   1.404       .  A
C830        H835   1.083       .  S
C831       C2528   1.397       .  A
C832       C2527   1.397       .  A
C832        H836   1.084   1_556  S
C837        C838   1.406       .  A
C837        C842   1.399       .  A
C837        H843   1.083       .  S
C838        C839   1.408       .  A
C839        C840   1.401       .  A
C839        H844   1.083       .  S
C840        C841   1.407       .  A
C840        H845   1.083       .  S
C841        C842   1.408       .  A
C842        H846   1.083       .  S
C847        C848   1.416       .  A
C847        C852   1.403       .  A
C847        H853   1.084       .  S
C848        C849   1.405       .  A
C849        C850   1.415       .  A
C849        H854   1.083       .  S
C850        C851   1.415       .  A
C850        H855   1.083       .  S
C851        C852   1.399       .  A
C852        H856   1.083       .  S
C857        C858   1.413       .  A
C857        C862   1.394       .  A
C857        H863   1.083       .  S
C858        C859   1.401       .  A
C859        C860   1.395       .  A
C859        H864   1.083       .  S
C860        C861   1.403       .  A
C860        H865   1.084       .  S
C861        C862   1.393       .  A
C862        H866   1.083       .  S
C867        C868   1.402       .  A
C867        C872   1.401       .  A
C867        H873   1.084       .  S
C868        C869   1.409       .  A
C869        C870   1.404   1_655  A
C869        H874   1.083       .  S
C870        C871   1.403       .  A
C870        H875   1.083       .  S
C871        C872   1.407   1_455  A
C872        H876   1.083       .  S
C877        C878   1.412   1_455  A
C877        C882   1.398       .  A
C877        H883   1.083       .  S
C878        C879   1.406       .  A
C879        C880   1.407   1_655  A
C879        H884   1.083       .  S
C880        C881   1.409       .  A
C880        H885   1.083   1_455  S
C881        C882   1.399       .  A
C882        H886   1.083       .  S
C887        C888   1.399       .  A
C887        C892   1.377       .  A
C887        H893   1.083       .  S
C888        C889   1.401   1_455  A
C889        C890   1.381       .  A
C889        H894   1.083       .  S
C890        C891   1.399       .  A
C890        H895   1.083       .  S
C891        C892   1.399   1_655  A
C892        H896   1.084       .  S
C897        C898   1.400       .  A
C897        C902   1.390   1_455  A
C897        H903   1.083       .  S
C898        C899   1.400       .  A
C899        C900   1.379       .  A
C899        H904   1.084       .  S
C900        C901   1.397   1_455  A
C900        H905   1.084       .  S
C901        C902   1.401       .  A
C902        H906   1.084       .  S
C907        C908   1.415   1_655  A
C907        C912   1.400       .  A
C907        H913   1.083       .  S
C908        C909   1.402       .  A
C909        C910   1.399   1_455  A
C909        H914   1.083       .  S
C910        C911   1.407       .  A
C910        H915   1.084   1_655  S
C911        C912   1.396       .  A
C912        H916   1.083       .  S
C917        C918   1.397       .  A
C917        C922   1.400   1_655  A
C917        H923   1.083       .  S
C918        C919   1.412   1_655  A
C919        C920   1.410       .  A
C919        H924   1.083       .  S
C920        C921   1.404       .  A
C920        H925   1.083       .  S
C921        C922   1.414       .  A
C922        H926   1.084       .  S
C927        C928   1.410       .  A
C927        C932   1.404       .  A
C927        H933   1.083       .  S
C928        C929   1.402       .  A
C929        C930   1.408       .  A
C929        H934   1.083       .  S
C930        C931   1.413       .  A
C930        H935   1.083       .  S
C931        C932   1.402       .  A
C932        H936   1.083       .  S
C937        C938   1.397       .  A
C937        C942   1.395       .  A
C937        H943   1.083       .  S
C938        C939   1.408       .  A
C939        C940   1.402       .  A
C939        H944   1.083       .  S
C940        C941   1.404       .  A
C940        H945   1.083       .  S
C941        C942   1.412       .  A
C942        H946   1.083       .  S
C947        C948   1.406       .  A
C947        C952   1.397       .  A
C947        H953   1.083       .  S
C948        C949   1.409       .  A
C949        C950   1.399       .  A
C949        H954   1.083       .  S
C950        C951   1.400       .  A
C950        H955   1.083       .  S
C951        C952   1.402       .  A
C952        H956   1.084       .  S
C957        C962   1.396       .  A
C957       C2654   1.398       .  A
C957        H963   1.083       .  S
C958        C959   1.404       .  A
C958       C2653   1.398   1_554  A
C959        C960   1.396   1_554  A
C959        H964   1.084       .  S
C960       C2657   1.400       .  A
C960        H965   1.083   1_556  S
C961        C962   1.407       .  A
C961       C2656   1.400       .  A
C962        H966   1.084       .  S
C967        C968   1.403       .  A
C967        C972   1.407       .  A
C967        H973   1.083       .  S
C968        C969   1.407       .  A
C969        C970   1.403       .  A
C969        H974   1.084       .  S
C970        C971   1.403       .  A
C970        H975   1.083       .  S
C971        C972   1.409       .  A
C972        H976   1.083       .  S
C977        C978   1.404       .  A
C977        C982   1.395       .  A
C977        H983   1.083       .  S
C978        C979   1.412       .  A
C979        C980   1.402       .  A
C979        H984   1.083       .  S
C980        C981   1.399       .  A
C980        H985   1.083       .  S
C981        C982   1.403       .  A
C982        H986   1.084       .  S
C987        C992   1.406       .  A
C987       C2684   1.403       .  A
C987        H993   1.083       .  S
C988        C989   1.411       .  A
C988       C2683   1.403   1_554  A
C989        C990   1.397   1_554  A
C989        H994   1.084       .  S
C990       C2687   1.397       .  A
C990        H995   1.083       .  S
C991        C992   1.407       .  A
C991       C2686   1.397       .  A
C992        H996   1.083       .  S
C997        C998   1.400       .  A
C997       C1002   1.385       .  A
C997       H1003   1.083       .  S
C998        C999   1.405       .  A
C999       C1000   1.389       .  A
C999       H1004   1.083       .  S
C1000      C1001   1.397       .  A
C1000      H1005   1.084       .  S
C1001      C1002   1.400       .  A
C1002      H1006   1.084       .  S
C1007      C1008   1.398       .  A
C1007      C1012   1.388       .  A
C1007      H1013   1.084       .  S
C1008      C1009   1.398       .  A
C1009      C1010   1.390       .  A
C1009      H1014   1.082       .  S
C1010      C1011   1.402       .  A
C1010      H1015   1.083       .  S
C1011      C1012   1.402       .  A
C1012      H1016   1.083       .  S
C1017      C1018   1.405       .  A
C1017      C1022   1.410       .  A
C1017      H1023   1.083       .  S
C1018      C1019   1.396       .  A
C1019      C1020   1.389       .  A
C1019      H1024   1.083       .  S
C1020      C1021   1.406       .  A
C1020      H1025   1.083       .  S
C1021      C1022   1.409       .  A
C1022      H1026   1.083       .  S
C1027      C1028   1.405       .  A
C1027      C2728   1.401       .  A
C1027      H2729   1.083       .  S
C1028      C1029   1.411       .  A
C1029      C1030   1.405       .  A
C1029      H1034   1.083       .  S
C1030      C2727   1.404       .  A
C1030      H1035   1.083       .  S
C1031      C1032   1.407       .  A
C1031      C2726   1.404       .  A
C1032      C2723   1.401       .  A
C1032      H1036   1.083       .  S
H1033      C2723   1.083       .  S
C1037      C1042   1.402   1_556  A
C1037      C2734   1.399       .  A
C1037      H1043   1.083   1_556  S
C1038      C1039   1.413       .  A
C1038      C2733   1.399       .  A
C1039      C1040   1.403       .  A
C1039      H1044   1.084       .  S
C1040      C2737   1.399       .  A
C1040      H1045   1.083       .  S
C1041      C1042   1.414       .  A
C1041      C2736   1.399   1_554  A
C1042      H1046   1.083       .  S
C1047      C1048   1.401       .  A
C1047      C1052   1.396       .  A
C1047      H1053   1.083       .  S
C1048      C1049   1.406       .  A
C1049      C1050   1.394       .  A
C1049      H1054   1.083       .  S
C1050      C1051   1.402       .  A
C1050      H1055   1.083       .  S
C1051      C1052   1.409       .  A
C1052      H1056   1.083       .  S
C1057      C1058   1.400       .  A
C1057      C1062   1.400       .  A
C1057      H1063   1.083       .  S
C1058      C1059   1.402       .  A
C1059      C1060   1.398       .  A
C1059      H1064   1.083       .  S
C1060      C1061   1.407       .  A
C1060      H1065   1.083       .  S
C1061      C1062   1.409       .  A
C1062      H1066   1.083       .  S
C1067      C1068   1.409       .  A
C1067      C1072   1.401       .  A
C1067      H1073   1.083       .  S
C1068      C1069   1.403       .  A
C1069      C1070   1.410       .  A
C1069      H1074   1.083       .  S
C1070      C1071   1.415       .  A
C1070      H1075   1.083       .  S
C1071      C1072   1.404       .  A
C1072      H1076   1.083       .  S
C1077      C1078   1.394       .  A
C1077      C1082   1.392       .  A
C1077      H1083   1.084       .  S
C1078      C1079   1.405       .  A
C1079      C1080   1.401       .  A
C1079      H1084   1.084       .  S
C1080      C1081   1.403       .  A
C1080      H1085   1.083       .  S
C1081      C1082   1.412       .  A
C1082      H1086   1.083       .  S
C1087      C1088   1.408       .  A
C1087      C1092   1.403       .  A
C1087      H1093   1.083       .  S
C1088      C1089   1.410       .  A
C1089      C1090   1.402       .  A
C1089      H1094   1.083       .  S
C1090      C1091   1.401       .  A
C1090      H1095   1.083       .  S
C1091      C1092   1.404       .  A
C1092      H1096   1.083       .  S
C1097      C1098   1.402       .  A
C1097      C1102   1.399       .  A
C1097      H1103   1.083       .  S
C1098      C1099   1.411       .  A
C1099      C1100   1.400       .  A
C1099      H1104   1.083       .  S
C1100      C1101   1.399       .  A
C1100      H1105   1.083       .  S
C1101      C1102   1.410       .  A
C1102      H1106   1.084       .  S
C1107      C1108   1.410       .  A
C1107      C1112   1.401       .  A
C1107      H1113   1.084       .  S
C1108      C1109   1.400       .  A
C1109      C1110   1.401       .  A
C1109      H1114   1.083       .  S
C1110      C1111   1.412       .  A
C1110      H1115   1.083       .  S
C1111      C1112   1.402       .  A
C1112      H1116   1.083       .  S
C1117      C1118   1.399       .  A
C1117      C1122   1.388       .  A
C1117      H1123   1.084       .  S
C1118      C1119   1.402       .  A
C1119      C1120   1.390       .  A
C1119      H1124   1.084       .  S
C1120      C1121   1.398       .  A
C1120      H1125   1.084       .  S
C1121      C1122   1.401       .  A
C1122      H1126   1.084       .  S
C1127      C1128   1.408       .  A
C1127      C1132   1.402       .  A
C1127      H1133   1.083       .  S
C1128      C1129   1.402       .  A
C1129      C1130   1.402       .  A
C1129      H1134   1.083       .  S
C1130      C1131   1.407       .  A
C1130      H1135   1.084       .  S
C1131      C1132   1.402       .  A
C1132      H1136   1.083       .  S
C1137      C1138   1.408       .  A
C1137      C1142   1.401       .  A
C1137      H1143   1.084       .  S
C1138      C1139   1.401       .  A
C1139      C1140   1.401       .  A
C1139      H1144   1.083       .  S
C1140      C1141   1.407       .  A
C1140      H1145   1.084       .  S
C1141      C1142   1.401       .  A
C1142      H1146   1.083       .  S
C1147      C1148   1.399       .  A
C1147      C1152   1.387       .  A
C1147      H1153   1.084       .  S
C1148      C2845   1.401       .  A
C1149      C2844   1.401       .  A
C1149      C2846   1.389       .  A
C1149      H1154   1.084   1_556  S
C1150      C1151   1.398       .  A
C1150      C2845   1.389       .  A
C1150      H2851   1.084       .  S
C1151      C1152   1.400       .  A
C1152      H1156   1.084       .  S
H1155      C2846   1.084   1_554  S
C1157      C1158   1.404       .  A
C1157      C1162   1.410       .  A
C1157      H1163   1.083       .  S
C1158      C1159   1.409       .  A
C1159      C1160   1.402       .  A
C1159      H1164   1.083       .  S
C1160      C1161   1.404       .  A
C1160      H1165   1.083       .  S
C1161      C1162   1.415       .  A
C1162      H1166   1.083       .  S
C1167      C1168   1.403       .  A
C1167      C1172   1.400       .  A
C1167      H1173   1.083       .  S
C1168      C1169   1.412       .  A
C1169      C1170   1.392       .  A
C1169      H1174   1.083       .  S
C1170      C1171   1.394       .  A
C1170      H1175   1.084       .  S
C1171      C1172   1.405       .  A
C1172      H1176   1.084       .  S
C1177      C1178   1.402       .  A
C1177      C1182   1.400       .  A
C1177      H1183   1.083       .  S
C1178      C1179   1.402       .  A
C1179      C1180   1.402       .  A
C1179      H1184   1.083       .  S
C1180      C1181   1.409       .  A
C1180      H1185   1.083       .  S
C1181      C1182   1.408       .  A
C1182      H1186   1.083       .  S
C1187      C1188   1.409       .  A
C1187      C1192   1.406       .  A
C1187      H1193   1.083       .  S
C1188      C1189   1.408       .  A
C1189      C1190   1.402       .  A
C1189      H1194   1.083       .  S
C1190      C1191   1.408       .  A
C1190      H1195   1.083       .  S
C1191      C1192   1.409       .  A
C1192      H1196   1.083       .  S
C1197      C1198   1.410       .  A
C1197      C1202   1.407       .  A
C1197      H1203   1.083       .  S
C1198      C2895   1.402   1_554  A
C1199      C1200   1.408       .  A
C1199      C2894   1.402       .  A
C1199      H1204   1.083       .  S
C1200      C1201   1.414       .  A
C1200      H1205   1.083       .  S
C1201      C2898   1.404       .  A
C1202      C2897   1.404   1_554  A
C1202      H1206   1.083       .  S
C1207      C1208   1.409       .  A
C1207      C1212   1.392       .  A
C1207      H1213   1.083       .  S
C1208      C1209   1.404       .  A
C1209      C1210   1.403       .  A
C1209      H1214   1.083       .  S
C1210      C1211   1.406       .  A
C1210      H1215   1.083       .  S
C1211      C1212   1.396       .  A
C1212      H1216   1.084       .  S
C1217      C1222   1.404       .  A
C1217      C2914   1.403       .  A
C1217      H1223   1.083       .  S
C1218      C1219   1.407       .  A
C1218      C2913   1.403       .  A
C1219      C2916   1.402       .  A
C1219      H1224   1.083       .  S
C1220      C1221   1.403       .  A
C1220      C2915   1.402       .  A
C1220      H1225   1.084       .  S
C1221      C1222   1.411       .  A
C1222      H1226   1.083       .  S
C1227      C1228   1.397       .  A
C1227      C1232   1.398       .  A
C1227      H1233   1.083       .  S
C1228      C1229   1.407       .  A
C1229      C1230   1.404       .  A
C1229      H1234   1.084       .  S
C1230      C1231   1.404       .  A
C1230      H1235   1.083       .  S
C1231      C1232   1.413       .  A
C1232      H1236   1.083       .  S
C1237      C1238   1.402       .  A
C1237      C1242   1.384       .  A
C1237      H1243   1.084       .  S
C1238      C1239   1.402       .  A
C1239      C1240   1.390       .  A
C1239      H1244   1.083       .  S
C1240      C1241   1.402       .  A
C1240      H1245   1.083       .  S
C1241      C1242   1.400       .  A
C1242      H1246   1.084       .  S
C1247      C1248   1.400       .  A
C1247      C1252   1.386       .  A
C1247      H1253   1.084       .  S
C1248      C1249   1.396       .  A
C1249      C1250   1.383       .  A
C1249      H1254   1.084       .  S
C1250      C1251   1.400       .  A
C1250      H1255   1.084       .  S
C1251      C1252   1.398       .  A
C1252      H1256   1.084       .  S
C1257      C1262   1.403       .  A
C1257      C2954   1.404       .  A
C1257      H1263   1.083       .  S
C1258      C1259   1.408       .  A
C1258      C2953   1.404   1_554  A
C1259      C1260   1.405   1_554  A
C1259      H1264   1.083       .  S
C1260      C2957   1.403       .  A
C1260      H1265   1.083   1_556  S
C1261      C1262   1.405       .  A
C1261      C2956   1.403       .  A
C1262      H1266   1.083       .  S
C1267      C1268   1.402       .  A
C1267      C1272   1.404       .  A
C1267      H1273   1.083       .  S
C1268      C1269   1.406       .  A
C1269      C1270   1.402       .  A
C1269      H1274   1.084       .  S
C1270      C1271   1.404       .  A
C1270      H1275   1.083       .  S
C1271      C1272   1.409       .  A
C1272      H1276   1.083       .  S
C1277      C1278   1.406       .  A
C1277      C1282   1.398       .  A
C1277      H1283   1.084       .  S
C1278      C2975   1.400       .  A
C1279      C1280   1.398       .  A
C1279      C2974   1.400   1_554  A
C1279      H1284   1.083       .  S
C1280      C1281   1.407       .  A
C1280      H1285   1.083       .  S
C1281      C2978   1.401   1_554  A
C1282      C2977   1.401       .  A
C1282      H1286   1.083       .  S
C1287      C1288   1.404       .  A
C1287      C1292   1.405       .  A
C1287      H1293   1.083       .  S
C1288      C1289   1.412       .  A
C1289      C1290   1.409       .  A
C1289      H1294   1.083       .  S
C1290      C1291   1.404       .  A
C1290      H1295   1.083       .  S
C1291      C1292   1.408       .  A
C1292      H1296   1.084       .  S
C1297      C1298   1.407       .  A
C1297      C1302   1.400       .  A
C1297      H1303   1.083       .  S
C1298      C1299   1.407       .  A
C1299      C1300   1.400       .  A
C1299      H1304   1.083       .  S
C1300      C1301   1.407       .  A
C1300      H1305   1.083       .  S
C1301      C1302   1.407       .  A
C1302      H1306   1.083       .  S
C1307      C1308   1.402       .  A
C1307      C1312   1.400   1_565  A
C1307      H1313   1.083       .  S
C1308      C1309   1.404   1_565  A
C1309      C1310   1.400       .  A
C1309      H1314   1.083       .  S
C1310      C1311   1.402       .  A
C1310      H1315   1.083       .  S
C1311      C1312   1.405       .  A
C1312      H1316   1.084       .  S
C1317      C1318   1.406       .  A
C1317      C1322   1.410   1_565  A
C1317      H1323   1.083       .  S
C1318      C1319   1.407   1_565  A
C1319      C1320   1.407       .  A
C1319      H1324   1.083       .  S
C1320      C1321   1.406       .  A
C1320      H1325   1.083       .  S
C1321      C1322   1.410       .  A
C1322      H1326   1.083       .  S
C1327      C1328   1.407       .  A
C1327      C1332   1.400       .  A
C1327      H3029   1.083       .  S
C1328      C1329   1.407       .  A
C1329      C1330   1.399       .  A
C1329      H1334   1.083       .  S
C1330      C1331   1.407       .  A
C1330      H1335   1.083       .  S
C1331      C1332   1.407       .  A
C1332      H1336   1.083       .  S
H1333      C3023   1.083       .  S
C1337      C1338   1.407   1_655  A
C1337      C1342   1.405       .  A
C1337      H1343   1.083       .  S
C1338      C1339   1.406       .  A
C1339      C1340   1.405       .  A
C1339      H1344   1.083       .  S
C1340      C1341   1.406   1_455  A
C1340      H1345   1.083       .  S
C1341      C1342   1.404       .  A
C1342      H1346   1.083       .  S
C1347      C1348   1.404       .  A
C1347      C1352   1.406       .  A
C1347      H1353   1.083       .  S
C1348      C1349   1.405       .  A
C1349      C1350   1.402   1_655  A
C1349      H1354   1.084       .  S
C1350      C1351   1.403       .  A
C1350      H1355   1.083       .  S
C1351      C1352   1.406   1_455  A
C1352      H1356   1.083       .  S
C1357      C1358   1.400       .  A
C1357      C1362   1.387   1_645  A
C1357      H1363   1.083       .  S
C1358      C1359   1.400   1_545  A
C1359      C1360   1.379       .  A
C1359      H1364   1.084   1_565  S
C1360      C1361   1.399   1_655  A
C1360      H1365   1.084       .  S
C1361      C1362   1.402       .  A
C1362      H1366   1.083       .  S
C1367      C1368   1.408       .  A
C1367      C1372   1.398       .  A
C1367      H1373   1.083       .  S
C1368      C1369   1.407       .  A
C1369      C1370   1.398       .  A
C1369      H1374   1.083       .  S
C1370      C1371   1.402       .  A
C1370      H1375   1.084       .  S
C1371      C1372   1.401       .  A
C1372      H1376   1.084       .  S
C1377      C1378   1.404       .  A
C1377      C1382   1.405   1_655  A
C1377      H1383   1.083       .  S
C1378      C1379   1.407   1_655  A
C1379      C1380   1.405       .  A
C1379      H1384   1.083       .  S
C1380      C1381   1.406       .  A
C1380      H1385   1.083       .  S
C1381      C1382   1.408       .  A
C1382      H1386   1.083       .  S
C1387      C1388   1.408       .  A
C1387      C1392   1.406   1_655  A
C1387      H1393   1.083       .  S
C1388      C1389   1.404       .  A
C1389      C1390   1.403       .  A
C1389      H1394   1.083       .  S
C1390      C1391   1.406   1_655  A
C1390      H1395   1.083       .  S
C1391      C1392   1.403       .  A
C1392      H1396   1.083       .  S
C1397      C1398   1.400   1_455  A
C1397      C1402   1.379   1_565  A
C1397      H1403   1.084       .  S
C1398      C1399   1.399       .  A
C1399      C1400   1.383   1_665  A
C1399      H1404   1.083       .  S
C1400      C1401   1.402       .  A
C1400      H1405   1.083       .  S
C1401      C1402   1.399       .  A
C1402      H1406   1.084       .  S
C1407      C1408   1.406   1_545  A
C1407      C1412   1.402       .  A
C1407      H1413   1.084       .  S
C1408      C1409   1.406       .  A
C1409      C1410   1.413   1_565  A
C1409      H1414   1.083       .  S
C1410      C1411   1.411       .  A
C1410      H1415   1.083       .  S
C1411      C1412   1.404       .  A
C1412      H1416   1.083       .  S
C1417      C1418   1.402       .  A
C1417      C1422   1.400   1_565  A
C1417      H1423   1.083       .  S
C1418      C1419   1.405   1_565  A
C1419      C1420   1.401       .  A
C1419      H1424   1.083       .  S
C1420      C1421   1.404       .  A
C1420      H1425   1.083       .  S
C1421      C1422   1.406       .  A
C1422      H1426   1.083       .  S
C1427      C1428   1.407       .  A
C1427      C1432   1.397       .  A
C1427      H1433   1.083       .  S
C1428      C1429   1.408       .  A
C1429      C1430   1.399       .  A
C1429      H1434   1.083       .  S
C1430      C1431   1.401       .  A
C1430      H1435   1.083       .  S
C1431      C1432   1.401       .  A
C1432      H1436   1.084       .  S
C1437      C1438   1.406       .  A
C1437      C1442   1.405   1_565  A
C1437      H1443   1.083       .  S
C1438      C1439   1.411   1_565  A
C1439      C1440   1.410       .  A
C1439      H1444   1.083       .  S
C1440      C1441   1.404       .  A
C1440      H1445   1.083       .  S
C1441      C1442   1.407       .  A
C1442      H1446   1.084   1_545  S
C1447      C1448   1.404   1_565  A
C1447      C1452   1.398       .  A
C1447      H1453   1.084       .  S
C1448      C1449   1.400       .  A
C1449      C1450   1.399       .  A
C1449      H1454   1.083       .  S
C1450      C1451   1.407   1_545  A
C1450      H1455   1.083       .  S
C1451      C1452   1.402       .  A
C1452      H1456   1.083       .  S
C1457      C1458   1.408       .  A
C1457      C1462   1.401       .  A
C1457      H1463   1.083       .  S
C1458      C1459   1.408       .  A
C1459      C1460   1.402       .  A
C1459      H1464   1.083       .  S
C1460      C1461   1.408       .  A
C1460      H1465   1.083       .  S
C1461      C1462   1.407       .  A
C1462      H1466   1.083       .  S
C1467      C1468   1.409       .  A
C1467      C1472   1.404       .  A
C1467      H1473   1.083       .  S
C1468      C1469   1.404       .  A
C1469      C1470   1.403       .  A
C1469      H1474   1.083       .  S
C1470      C1471   1.407       .  A
C1470      H1475   1.084       .  S
C1471      C1472   1.402       .  A
C1472      H1476   1.083       .  S
C1477      C1478   1.408       .  A
C1477      C1482   1.403       .  A
C1477      H1483   1.083       .  S
C1478      C1479   1.403       .  A
C1479      C1480   1.404       .  A
C1479      H1484   1.083       .  S
C1480      C1481   1.408       .  A
C1480      H1485   1.083       .  S
C1481      C1482   1.404       .  A
C1482      H1486   1.083       .  S
C1487      C1488   1.401       .  A
C1487      C1492   1.387       .  A
C1487      H1493   1.083       .  S
C1488      C3185   1.400       .  A
C1489      C1490   1.383       .  A
C1489      C3184   1.400   1_554  A
C1489      H1494   1.084       .  S
C1490      C3187   1.402   1_554  A
C1490      H1495   1.084       .  S
C1491      C1492   1.402       .  A
C1491      C3186   1.402       .  A
C1492      H1496   1.083   1_545  S
C1497      C1498   1.410       .  A
C1497      C1502   1.397       .  A
C1497      H1503   1.083       .  S
C1498      C1499   1.397       .  A
C1499      C1500   1.397       .  A
C1499      H1504   1.083       .  S
C1500      C1501   1.412       .  A
C1500      H1505   1.083       .  S
C1501      C1502   1.398       .  A
C1502      H1506   1.083       .  S
C1507      C1508   1.406       .  A
C1507      C1512   1.405       .  A
C1507      H1513   1.083       .  S
C1508      C1509   1.411       .  A
C1509      C1510   1.398       .  A
C1509      H1514   1.083       .  S
C1510      C1511   1.399       .  A
C1510      H1515   1.084       .  S
C1511      C1512   1.407       .  A
C1512      H1516   1.084       .  S
C1517      C1518   1.409       .  A
C1517      C1522   1.402       .  A
C1517      H1523   1.083       .  S
C1518      C1519   1.402       .  A
C1519      C1520   1.402       .  A
C1519      H1524   1.083       .  S
C1520      C1521   1.406       .  A
C1520      H1525   1.083       .  S
C1521      C1522   1.401       .  A
C1522      H1526   1.083       .  S
C1527      C1528   1.399       .  A
C1527      C1532   1.379   1_545  A
C1527      H1533   1.084       .  S
C1528      C1529   1.400       .  A
C1529      C1530   1.386       .  A
C1529      H1534   1.084       .  S
C1530      C1531   1.398   1_545  A
C1530      H1535   1.084       .  S
C1531      C1532   1.395       .  A
C1532      H1536   1.084       .  S
C1537      C1538   1.402       .  A
C1537      C1542   1.409   1_545  A
C1537      H1543   1.083       .  S
C1538      C1539   1.411   1_545  A
C1539      C1540   1.405       .  A
C1539      H1544   1.083       .  S
C1540      C1541   1.402       .  A
C1540      H1545   1.083       .  S
C1541      C1542   1.414       .  A
C1542      H1546   1.083       .  S
C1547      C1548   1.410   1_545  A
C1547      C1552   1.395       .  A
C1547      H1553   1.083       .  S
C1548      C1549   1.404       .  A
C1549      C1550   1.401   1_565  A
C1549      H1554   1.083       .  S
C1550      C1551   1.405       .  A
C1550      H1555   1.084   1_545  S
C1551      C1552   1.397       .  A
C1552      H1556   1.083       .  S
C1557      C1558   1.399       .  A
C1557      C1562   1.400       .  A
C1557      H1563   1.083       .  S
C1558      C1559   1.412       .  A
C1559      C1560   1.399       .  A
C1559      H1564   1.084       .  S
C1560      C1561   1.397       .  A
C1560      H1565   1.083   1_554  S
C1561      C1562   1.411       .  A
C1562      H1566   1.084       .  S
C1567      C1568   1.402       .  A
C1567      C1572   1.399       .  A
C1567      H1573   1.084       .  S
C1568      C1569   1.405       .  A
C1569      C1570   1.405       .  A
C1569      H1574   1.083       .  S
C1570      C1571   1.409       .  A
C1570      H1575   1.083       .  S
C1571      C1572   1.409       .  A
C1572      H1576   1.083       .  S
C1577      C1578   1.415       .  A
C1577      C1582   1.403       .  A
C1577      H1583   1.083       .  S
C1578      C1579   1.400       .  A
C1579      C1580   1.404       .  A
C1579      H1584   1.083       .  S
C1580      C1581   1.413       .  A
C1580      H1585   1.083       .  S
C1581      C1582   1.398       .  A
C1582      H1586   1.083       .  S
C1587      C1588   1.411       .  A
C1587      C1592   1.396       .  A
C1587      H1593   1.083       .  S
C1588      C3285   1.398       .  A
C1589      C1590   1.393       .  A
C1589      C3284   1.398   1_554  A
C1589      H1594   1.083       .  S
C1590      C1591   1.411       .  A
C1590      H1595   1.083       .  S
C1591      C3288   1.400   1_554  A
C1592      C3287   1.400       .  A
C1592      H1596   1.083       .  S
C1597      C1598   1.410       .  A
C1597      C1602   1.402       .  A
C1597      H1603   1.083       .  S
C1598      C1599   1.406       .  A
C1599      C1600   1.400       .  A
C1599      H1604   1.083       .  S
C1600      C1601   1.404       .  A
C1600      H1605   1.083       .  S
C1601      C1602   1.401       .  A
C1602      H1606   1.083       .  S
C1607      C1608   1.400       .  A
C1607      C1612   1.398       .  A
C1607      H1613   1.083       .  S
C1608      C1609   1.413       .  A
C1609      C1610   1.402       .  A
C1609      H1614   1.083       .  S
C1610      C1611   1.400       .  A
C1610      H1615   1.083       .  S
C1611      C1612   1.412       .  A
C1612      H1616   1.084       .  S
C1617      C1622   1.395       .  A
C1617      C3314   1.395       .  A
C1617      H1623   1.083       .  S
C1618      C1619   1.412       .  A
C1618      C3313   1.395   1_554  A
C1619      C3316   1.404       .  A
C1619      H1624   1.083       .  S
C1620      C1621   1.401       .  A
C1620      C3315   1.404       .  A
C1620      H1625   1.083       .  S
C1621      C1622   1.415       .  A
C1622      H1626   1.083       .  S
C1627      C1628   1.401       .  A
C1627      C1632   1.387       .  A
C1627      H1633   1.083       .  S
C1628      C1629   1.405       .  A
C1629      C1630   1.391       .  A
C1629      H1634   1.083       .  S
C1630      C1631   1.400       .  A
C1630      H1635   1.083       .  S
C1631      C1632   1.404       .  A
C1632      H1636   1.084       .  S
C1637      C1638   1.407       .  A
C1637      C1642   1.401       .  A
C1637      H1643   1.083       .  S
C1638      C1639   1.406       .  A
C1639      C1640   1.397       .  A
C1639      H1644   1.083       .  S
C1640      C1641   1.407       .  A
C1640      H1645   1.083       .  S
C1641      C1642   1.407       .  A
C1642      H1646   1.083       .  S
C1647      C1648   1.408       .  A
C1647      C1652   1.401       .  A
C1647      H1653   1.083       .  S
C1648      C1649   1.404       .  A
C1649      C1650   1.404       .  A
C1649      H1654   1.083       .  S
C1650      C1651   1.408       .  A
C1650      H1655   1.083       .  S
C1651      C1652   1.401       .  A
C1652      H1656   1.084       .  S
C1657      C1658   1.408       .  A
C1657      C3358   1.405       .  A
C1657      H1663   1.083       .  S
C1658      C1659   1.400   1_554  A
C1659      C3356   1.398       .  A
C1659      H1664   1.083       .  S
C1660      C1661   1.411       .  A
C1660      C3355   1.398       .  A
C1660      H1665   1.083       .  S
C1661      C1662   1.405       .  A
C1662      C3353   1.405       .  A
C1662      H1666   1.083       .  S
C1667      C1668   1.403       .  A
C1667      C1672   1.386       .  A
C1667      H1673   1.084       .  S
C1668      C1669   1.399       .  A
C1669      C1670   1.385       .  A
C1669      H1674   1.084       .  S
C1670      C1671   1.400       .  A
C1670      H1675   1.084       .  S
C1671      C1672   1.397       .  A
C1672      H1676   1.084       .  S
C1677      C1682   1.402       .  A
C1677      C3374   1.398       .  A
C1677      H1683   1.083       .  S
C1678      C1679   1.412       .  A
C1678      C3373   1.398   1_554  A
C1679      C1680   1.409       .  A
C1679      H1684   1.084       .  S
C1680      C3377   1.404   1_554  A
C1680      H1685   1.083       .  S
C1681      C1682   1.415       .  A
C1681      C3376   1.404       .  A
C1682      H1686   1.083       .  S
C1687      C1688   1.392       .  A
C1687      C1692   1.390       .  A
C1687      H1693   1.084       .  S
C1688      C1689   1.406       .  A
C1689      C1690   1.398       .  A
C1689      H1694   1.084       .  S
C1690      C1691   1.400       .  A
C1690      H1695   1.083       .  S
C1691      C1692   1.412       .  A
C1692      H1696   1.083       .  S
Zn1697     O1701   1.897       .  S
Zn1697     O1702   1.975       .  S
Zn1697     O1706   1.948       .  S
Zn1697     O1713   2.003       .  S
Zn1698     O1701   1.938       .  S
Zn1698     O1703   2.051       .  S
Zn1698     O1705   2.005       .  S
Zn1698     O1709   2.034       .  S
Zn1699     O1701   1.924       .  S
Zn1699     O1704   1.975       .  S
Zn1699     O1707   2.016       .  S
Zn1699     O1710   1.997       .  S
Zn1700     O1701   1.941       .  S
Zn1700     O1708   2.054       .  S
Zn1700     O1711   2.042       .  S
Zn1700     O1712   2.064       .  S
O1702      C1714   1.268       .  A
O1703      C1715   1.276       .  A
O1704      C1716   1.268       .  A
O1705      C1714   1.266       .  A
O1706      C1716   1.266       .  A
O1707      C1715   1.273       .  A
O1708      C1717   1.279       .  A
O1709      C1718   1.284       .  A
O1710      C1717   1.274       .  A
O1711      C1718   1.284       .  A
O1712      C1719   1.276       .  A
O1713      C1719   1.270       .  A
C1714      C3384   1.453       .  S
C1715      C3374   1.484       .  S
C1716      C3364   1.447       .  S
C1717      C3354   1.477       .  S
C1718      C3334   1.486       .  S
C1719      C3344   1.486       .  S
Zn1720     O1724   1.930       .  S
Zn1720     O1725   2.068       .  S
Zn1720     O1729   2.084       .  S
Zn1720     O1736   1.987       .  S
Zn1721     O1724   1.860       .  S
Zn1721     O1726   1.955       .  S
Zn1721     O1728   1.924       .  S
Zn1721     O1732   1.928       .  S
Zn1722     O1724   1.884       .  S
Zn1722     O1727   1.961       .  S
Zn1722     O1730   1.996       .  S
Zn1722     O1733   1.943       .  S
Zn1723     O1724   1.973       .  S
Zn1723     O1731   2.123       .  S
Zn1723     O1734   2.140       .  S
Zn1723     O1735   2.100       .  S
O1725      C1737   1.279       .  A
O1726      C1738   1.270       .  A
O1727      C1739   1.265       .  A
O1728      C1737   1.265       .  A
O1729      C1739   1.281       .  A
O1730      C1738   1.272       .  A
O1731      C1740   1.282       .  A
O1732      C1741   1.262       .  A
O1733      C1740   1.257       .  A
O1734      C1741   1.287       .  A
O1735      C1742   1.290       .  A
O1736      C1742   1.276       .  A
C1737      C3387   1.473       .  S
C1738      C3327   1.460       .  S
C1739      C3304   1.486       .  S
C1740      C3317   1.487       .  S
C1741      C3377   1.493       .  S
C1742      C3297   1.472       .  S
Zn1743     O1747   1.882       .  S
Zn1743     O1748   1.981       .  S
Zn1743     O1752   1.960       .  S
Zn1743     O1759   1.992       .  S
Zn1744     O1747   1.926       .  S
Zn1744     O1749   1.969       .  S
Zn1744     O1751   2.078       .  S
Zn1744     O1755   2.057       .  S
Zn1745     O1747   1.931       .  S
Zn1745     O1750   2.106       .  S
Zn1745     O1753   2.122       .  S
Zn1745     O1756   2.132       .  S
Zn1746     O1747   1.872       .  S
Zn1746     O1754   1.939       .  S
Zn1746     O1757   1.952       .  S
Zn1746     O1758   1.968       .  S
O1748      C1760   1.268       .  A
O1749      C1761   1.275       .  A
O1750      C1762   1.287       .  A
O1751      C1760   1.280       .  A
O1752      C1762   1.270       .  A
O1753      C1761   1.294       .  A
O1754      C1763   1.266       .  A
O1755      C1764   1.278       .  A
O1756      C1763   1.288       .  A
O1757      C1764   1.262       .  A
O1758      C1765   1.269       .  A
O1759      C1765   1.274       .  A
C1760      C3357   1.490       .  S
C1761      C3264   1.473       .  S
C1762      C3347   1.475       .  S
C1763      C3274   1.489       .  S
C1764      C3284   1.473       .  S
C1765      C3324   1.463       .  S
Zn1766     O1770   1.903       .  S
Zn1766     O1771   1.961       .  S
Zn1766     O1775   1.962       .  S
Zn1766     O1782   1.904       .  S
Zn1767     O1770   1.870       .  S
Zn1767     O1772   1.942       .  S
Zn1767     O1774   1.951       .  S
Zn1767     O1778   1.948       .  S
Zn1768     O1770   1.917       .  S
Zn1768     O1773   2.068       .  S
Zn1768     O1776   2.052       .  S
Zn1768     O1779   1.951       .  S
Zn1769     O1770   1.932       .  S
Zn1769     O1777   2.123       .  S
Zn1769     O1780   2.123       .  S
Zn1769     O1781   2.118       .  S
O1771      C1783   1.266       .  A
O1772      C1784   1.264       .  A
O1773      C1785   1.279       .  A
O1774      C1783   1.268       .  A
O1775      C1785   1.265       .  A
O1776      C1784   1.277       .  A
O1777      C1786   1.295       .  A
O1778      C1787   1.268       .  A
O1779      C1786   1.273       .  A
O1780      C1787   1.288       .  A
O1781      C1788   1.286       .  A
O1782      C1788   1.262       .  A
C1783      C3367   1.441       .  S
C1784      C3287   1.476       .  S
C1785      C3314   1.478       .  S
C1786      C3254   1.476       .  S
C1787      C3277   1.484       .  S
C1788      C3307   1.477       .  S
Zn1789     O1793   1.947       .  S
Zn1789     O1794   2.055       .  S
Zn1789     O1798   1.954       .  S
Zn1789     O1805   2.067       .  S
Zn1790     O1793   1.925       .  S
Zn1790     O1795   1.938       .  S
Zn1790     O1797   1.967       .  S
Zn1790     O1801   1.947       .  S
Zn1791     O1793   1.963       .  S
Zn1791     O1796   2.101       .  S
Zn1791     O1799   2.133       .  S
Zn1791     O1802   2.098       .  S
Zn1792     O1793   1.902       .  S
Zn1792     O1800   1.946       .  S
Zn1792     O1803   1.940       .  S
Zn1792     O1804   1.980       .  S
O1794      C1806   1.275       .  A
O1795      C1807   1.261       .  A
O1796      C1808   1.293       .  A
O1797      C1806   1.265       .  A
O1798      C1808   1.274       .  A
O1799      C1807   1.285       .  A
O1800      C1809   1.266       .  A
O1801      C1810   1.265       .  A
O1802      C1809   1.283       .  A
O1803      C1810   1.267       .  A
O1804      C1811   1.266       .  A
O1805      C1811   1.276       .  A
C1806      C3244   1.480       .  S
C1807      C3237   1.489       .  S
C1808      C3194   1.471       .  S
C1809      C3214   1.475       .  S
C1810      C3227   1.429       .  S
C1811      C3204   1.490       .  S
Zn1812     O1816   1.919       .  S
Zn1812     O1817   2.046   1_554  S
Zn1812     O1821   2.043   1_554  S
Zn1813     O1816   1.955   1_556  S
Zn1813     O1818   1.995       .  S
Zn1813     O1820   2.022       .  S
Zn1813     O1824   1.965       .  S
Zn1814     O1816   1.937       .  S
Zn1814     O1819   2.051   1_554  S
Zn1814     O1822   2.024   1_554  S
Zn1815     O1823   2.013       .  S
Zn1815     O1826   1.952       .  S
Zn1815     O1827   2.010       .  S
O1817      C1829   1.272       .  A
O1818      C1830   1.271       .  A
O1819      C1831   1.287       .  A
O1820      C1829   1.271       .  A
O1821      C1831   1.286       .  A
O1822      C1830   1.271       .  A
O1823      C1832   1.274       .  A
O1824      C1833   1.268       .  A
O1825      C1832   1.284       .  A
O1827      C1834   1.274       .  A
O1828      C1834   1.279       .  A
C1829      C3174   1.484       .  S
C1830      C3247   1.464       .  S
C1831      C3154   1.491       .  S
C1832      C3234   1.493       .  S
C1833      C3184   1.450       .  S
C1834      C3164   1.481       .  S
Zn1835     O1839   1.949       .  S
Zn1835     O1844   2.028       .  S
Zn1835     O1851   2.054       .  S
Zn1836     O1841   2.009       .  S
Zn1836     O1843   1.977       .  S
Zn1836     O1847   1.966       .  S
Zn1837     O1839   1.936       .  S
Zn1837     O1842   2.035       .  S
Zn1837     O1848   2.020       .  S
Zn1838     O1839   1.921       .  S
Zn1838     O1846   2.012       .  S
Zn1838     O1849   1.950       .  S
Zn1838     O1850   2.007       .  S
O1840      C1852   1.280       .  A
O1841      C1853   1.272       .  A
O1842      C1854   1.284       .  A
O1843      C1852   1.271       .  A
O1844      C1854   1.284       .  A
O1845      C1853   1.279       .  A
O1846      C1855   1.272       .  A
O1847      C1856   1.268       .  A
O1848      C1855   1.270       .  A
O1850      C1857   1.270       .  A
O1851      C1857   1.273       .  A
C1852      C3207   1.472       .  S
C1853      C3134   1.493       .  S
C1854      C3124   1.483       .  S
C1855      C3147   1.472       .  S
C1856      C3187   1.453   1_565  S
C1857      C3217   1.477       .  S
Zn1858     O1862   1.957       .  S
Zn1858     O1863   2.031       .  S
Zn1858     O1867   2.087       .  S
Zn1858     O1874   2.039       .  S
Zn1859     O1862   1.948       .  S
Zn1859     O1864   2.058       .  S
Zn1859     O1866   2.049       .  S
Zn1859     O1870   2.060       .  S
Zn1860     O1862   1.922       .  S
Zn1860     O1865   2.002       .  S
Zn1860     O1868   1.998       .  S
Zn1860     O1871   1.935       .  S
Zn1861     O1862   1.954       .  S
Zn1861     O1869   1.952       .  S
Zn1861     O1872   2.006       .  S
Zn1861     O1873   1.982       .  S
O1863      C1875   1.285       .  A
O1864      C1876   1.278       .  A
O1865      C1877   1.270       .  A
O1866      C1875   1.286       .  A
O1867      C1877   1.280       .  A
O1868      C1876   1.271       .  A
O1869      C1878   1.267       .  A
O1870      C1879   1.272       .  A
O1871      C1878   1.265       .  A
O1872      C1879   1.267       .  A
O1873      C1880   1.267       .  A
O1874      C1880   1.272       .  A
C1875      C3337   1.486       .  S
C1876      C3177   1.481       .  S
C1877      C3137   1.487       .  S
C1878      C3224   1.436       .  S
C1879      C3167   1.480       .  S
C1880      C3144   1.465       .  S
Zn1881     O1885   1.941       .  S
Zn1881     O1886   2.038       .  S
Zn1881     O1890   2.093       .  S
Zn1881     O1897   2.030       .  S
Zn1882     O1885   1.964       .  S
Zn1882     O1887   1.955       .  S
Zn1882     O1889   2.006       .  S
Zn1882     O1893   2.026       .  S
Zn1883     O1885   1.894       .  S
Zn1883     O1888   2.004       .  S
Zn1883     O1891   1.932       .  S
Zn1883     O1894   1.995       .  S
Zn1884     O1885   1.935       .  S
Zn1884     O1892   2.067       .  S
Zn1884     O1895   2.054       .  S
Zn1884     O1896   2.039       .  S
O1886      C1898   1.272       .  A
O1887      C1899   1.268       .  A
O1888      C1900   1.271       .  A
O1889      C1898   1.270       .  A
O1890      C1900   1.282       .  A
O1891      C1899   1.268       .  A
O1892      C1901   1.280       .  A
O1893      C1902   1.270       .  A
O1894      C1901   1.271       .  A
O1895      C1902   1.272       .  A
O1896      C1903   1.286       .  A
O1897      C1903   1.285       .  A
C1898      C3114   1.475       .  S
C1899      C3094   1.442       .  S
C1900      C3104   1.488       .  S
C1901      C3084   1.481       .  S
C1902      C3074   1.486       .  S
C1903      C3064   1.484       .  S
Zn1904     O1909   2.038       .  S
Zn1904     O1920   2.045       .  S
Zn1905     O1910   1.966       .  S
Zn1905     O1912   2.009       .  S
Zn1905     O1916   2.010       .  S
Zn1906     O1908   1.902       .  S
Zn1906     O1911   1.998       .  S
Zn1906     O1914   1.939       .  S
Zn1906     O1917   1.994       .  S
Zn1907     O1918   2.068       .  S
Zn1907     O1919   2.041       .  S
O1909      C1921   1.272       .  A
O1911      C1923   1.270       .  A
O1912      C1921   1.270       .  A
O1913      C1923   1.280       .  A
O1914      C1922   1.268   1_556  A
O1915      C1924   1.281       .  A
O1916      C1925   1.270       .  A
O1917      C1924   1.271       .  A
O1918      C1925   1.275       .  A
O1919      C1926   1.286       .  A
O1920      C1926   1.286       .  A
C1921      C3117   1.479       .  S
C1922      C3054   1.445       .  S
C1923      C3107   1.489       .  S
C1924      C3044   1.478       .  S
C1925      C3037   1.484       .  S
C1926      C3024   1.487       .  S
Zn1927     O1931   1.960       .  S
Zn1927     O1932   2.046       .  S
Zn1927     O1936   2.061       .  S
Zn1928     O1931   1.968       .  S
Zn1928     O1933   2.038       .  S
Zn1928     O1935   2.040       .  S
Zn1929     O1931   1.950       .  S
Zn1929     O1934   2.007       .  S
Zn1929     O1937   1.997       .  S
Zn1929     O1940   1.948       .  S
Zn1930     O1938   1.952       .  S
Zn1930     O1941   2.004       .  S
Zn1930     O1942   2.000       .  S
O1932      C1944   1.286       .  A
O1933      C1945   1.272       .  A
O1934      C1946   1.268       .  A
O1935      C1944   1.285       .  A
O1936      C1946   1.273       .  A
O1937      C1945   1.269       .  A
O1939      C1948   1.281       .  A
O1940      C1947   1.268   1_556  A
O1941      C1948   1.270       .  A
O1942      C1949   1.271       .  A
O1943      C1949   1.279       .  A
C1944      C2994   1.489       .  S
C1945      C3004   1.470       .  S
C1946      C3087   1.480       .  S
C1947      C3057   1.446       .  S
C1948      C3014   1.489       .  S
C1949      C3077   1.485       .  S
Zn1950     O1954   1.966       .  S
Zn1950     O1955   2.051       .  S
Zn1950     O1959   2.073       .  S
Zn1950     O1966   2.088       .  S
Zn1951     O1954   1.959       .  S
Zn1951     O1956   2.040       .  S
Zn1951     O1958   2.043       .  S
Zn1951     O1962   2.088       .  S
Zn1952     O1954   1.946       .  S
Zn1952     O1957   1.992       .  S
Zn1952     O1960   1.994       .  S
Zn1952     O1963   1.944       .  S
Zn1953     O1954   1.930       .  S
Zn1953     O1961   1.943       .  S
Zn1953     O1964   2.002       .  S
Zn1953     O1965   1.983       .  S
O1955      C1967   1.287       .  A
O1956      C1968   1.270       .  A
O1957      C1969   1.267       .  A
O1958      C1967   1.286       .  A
O1959      C1969   1.274       .  A
O1960      C1968   1.267       .  A
O1961      C1970   1.266       .  A
O1962      C1971   1.280       .  A
O1963      C1970   1.268       .  A
O1964      C1971   1.270       .  A
O1965      C1972   1.269       .  A
O1966      C1972   1.282       .  A
C1967      C3294   1.488       .  S
C1968      C3007   1.471       .  S
C1969      C3047   1.479       .  S
C1970      C3097   1.444       .  S
C1971      C3017   1.492       .  S
C1972      C3034   1.482       .  S
Zn1973     O1977   1.937       .  S
Zn1973     O1978   2.051       .  S
Zn1973     O1982   2.064       .  S
Zn1973     O1989   2.061       .  S
Zn1974     O1977   1.938       .  S
Zn1974     O1979   2.077       .  S
Zn1974     O1981   2.044       .  S
Zn1974     O1985   2.022       .  S
Zn1975     O1977   1.904       .  S
Zn1975     O1980   2.002       .  S
Zn1975     O1983   2.006       .  S
Zn1975     O1986   1.954       .  S
Zn1976     O1977   1.958       .  S
Zn1976     O1984   1.956       .  S
Zn1976     O1987   2.002       .  S
Zn1976     O1988   2.002       .  S
O1978      C1990   1.287       .  A
O1979      C1991   1.280       .  A
O1980      C1992   1.274       .  A
O1981      C1990   1.286       .  A
O1982      C1992   1.281       .  A
O1983      C1991   1.271       .  A
O1984      C1993   1.267       .  A
O1985      C1994   1.269       .  A
O1986      C1993   1.268       .  A
O1987      C1994   1.269       .  A
O1988      C1995   1.268       .  A
O1989      C1995   1.273       .  A
C1990      C3157   1.491       .  S
C1991      C2987   1.486       .  S
C1992      C2964   1.476       .  S
C1993      C2944   1.436       .  S
C1994      C2974   1.468       .  S
C1995      C2957   1.478       .  S
Zn1996     O2000   1.947       .  S
Zn1996     O2001   2.060       .  S
Zn1996     O2005   2.039       .  S
Zn1996     O2012   2.057       .  S
Zn1997     O2000   1.915       .  S
Zn1997     O2002   2.012       .  S
Zn1997     O2004   2.013       .  S
Zn1997     O2008   1.952       .  S
Zn1998     O2000   1.930       .  S
Zn1998     O2003   2.040       .  S
Zn1998     O2006   2.012       .  S
Zn1998     O2009   2.064       .  S
Zn1999     O2000   1.933       .  S
Zn1999     O2007   2.021       .  S
Zn1999     O2010   1.978       .  S
Zn1999     O2011   1.990       .  S
O2001      C2013   1.276       .  A
O2002      C2014   1.273       .  A
O2003      C2015   1.284       .  A
O2004      C2013   1.272       .  A
O2005      C2015   1.284       .  A
O2006      C2014   1.270       .  A
O2007      C2016   1.274       .  A
O2008      C2017   1.268       .  A
O2009      C2016   1.277       .  A
O2010      C2017   1.269       .  A
O2011      C2018   1.272       .  A
O2012      C2018   1.279       .  A
C2013      C2914   1.486       .  S
C2014      C2977   1.470       .  S
C2015      C3027   1.487       .  S
C2016      C2984   1.493       .  S
C2017      C2934   1.455       .  S
C2018      C2924   1.471       .  S
Zn2019     O2023   1.947       .  S
Zn2019     O2024   2.016       .  S
Zn2019     O2028   1.987       .  S
Zn2019     O2035   1.968       .  S
Zn2020     O2023   1.922       .  S
Zn2020     O2025   2.046       .  S
Zn2020     O2027   2.047       .  S
Zn2020     O2031   2.059       .  S
Zn2021     O2023   1.936       .  S
Zn2021     O2026   2.032       .  S
Zn2021     O2029   2.067       .  S
Zn2021     O2032   2.095       .  S
Zn2022     O2023   1.889       .  S
Zn2022     O2030   2.017       .  S
Zn2022     O2033   2.006       .  S
Zn2022     O2034   1.967       .  S
O2024      C2036   1.271       .  A
O2025      C2037   1.286       .  A
O2026      C2038   1.272       .  A
O2027      C2036   1.273       .  A
O2028      C2038   1.270       .  A
O2029      C2037   1.288       .  A
O2030      C2039   1.275       .  A
O2031      C2040   1.280       .  A
O2032      C2039   1.285       .  A
O2033      C2040   1.274       .  A
O2034      C2041   1.271       .  A
O2035      C2041   1.267       .  A
C2036      C2967   1.485       .  S
C2037      C2884   1.496       .  S
C2038      C2907   1.465       .  S
C2039      C2894   1.490       .  S
C2040      C2954   1.481       .  S
C2041      C2937   1.453       .  S
Zn2042     O2046   1.942       .  S
Zn2042     O2047   1.963       .  S
Zn2042     O2051   1.946       .  S
Zn2042     O2058   1.964       .  S
Zn2043     O2046   1.916       .  S
Zn2043     O2048   1.953       .  S
Zn2043     O2050   1.940       .  S
Zn2043     O2054   1.955       .  S
Zn2044     O2046   1.978       .  S
Zn2044     O2049   2.097       .  S
Zn2044     O2052   2.125       .  S
Zn2044     O2055   2.106       .  S
Zn2045     O2046   1.964       .  S
Zn2045     O2053   1.979       .  S
Zn2045     O2056   2.061       .  S
Zn2045     O2057   2.080       .  S
O2047      C2059   1.266       .  A
O2048      C2060   1.263       .  A
O2049      C2061   1.282       .  A
O2050      C2059   1.265       .  A
O2051      C2061   1.263       .  A
O2052      C2060   1.284       .  A
O2053      C2062   1.275       .  A
O2054      C2063   1.266       .  A
O2055      C2062   1.291       .  A
O2056      C2063   1.276       .  A
O2057      C2064   1.278       .  A
O2058      C2064   1.265       .  A
C2059      C2947   1.438       .  S
C2060      C2897   1.491       .  S
C2061      C2917   1.481       .  S
C2062      C2874   1.469       .  S
C2063      C2904   1.478       .  S
C2064      C2927   1.490       .  S
Zn2065     O2069   1.903       .  S
Zn2065     O2070   2.029       .  S
Zn2065     O2081   2.026       .  S
Zn2066     O2069   1.921   1_554  S
Zn2066     O2073   2.063   1_554  S
Zn2066     O2077   2.008   1_554  S
Zn2067     O2072   2.005       .  S
Zn2067     O2075   2.018       .  S
Zn2067     O2078   1.977       .  S
Zn2068     O2069   1.950       .  S
Zn2068     O2076   1.963       .  S
Zn2068     O2079   1.997       .  S
Zn2068     O2080   2.024       .  S
O2070      C2082   1.284       .  A
O2071      C2083   1.286       .  A
O2072      C2084   1.274       .  A
O2073      C2082   1.288       .  A
O2074      C2084   1.278       .  A
O2075      C2083   1.276       .  A
O2076      C2085   1.267       .  A
O2077      C2086   1.269       .  A
O2079      C2086   1.271       .  A
O2080      C2087   1.273       .  A
O2081      C2087   1.270       .  A
C2082      C3267   1.492       .  S
C2083      C2854   1.493       .  S
C2084      C2837   1.473       .  S
C2085      C2844   1.448       .  S
C2086      C2867   1.460       .  S
C2087      C2824   1.479       .  S
Zn2088     O2092   1.947       .  S
Zn2088     O2093   1.942       .  S
Zn2088     O2097   1.988       .  S
Zn2088     O2104   1.980       .  S
Zn2089     O2092   1.939       .  S
Zn2089     O2094   2.062       .  S
Zn2089     O2096   2.061       .  S
Zn2089     O2100   1.988       .  S
Zn2090     O2092   1.903       .  S
Zn2090     O2095   1.959       .  S
Zn2090     O2098   1.980       .  S
Zn2090     O2101   1.931       .  S
Zn2091     O2092   1.956       .  S
Zn2091     O2099   2.092       .  S
Zn2091     O2102   2.106       .  S
Zn2091     O2103   2.097       .  S
O2093      C2105   1.265       .  A
O2094      C2106   1.278       .  A
O2095      C2107   1.268       .  A
O2096      C2105   1.278       .  A
O2097      C2107   1.268       .  A
O2098      C2106   1.269       .  A
O2099      C2108   1.281       .  A
O2100      C2109   1.275       .  A
O2101      C2108   1.263       .  A
O2102      C2109   1.291       .  A
O2103      C2110   1.280       .  A
O2104      C2110   1.264       .  A
C2105      C2864   1.478       .  S
C2106      C2794   1.485       .  S
C2107      C2817   1.447       .  S
C2108      C2804   1.475       .  S
C2109      C2787   1.474       .  S
C2110      C2857   1.496       .  S
Zn2111     O2115   1.914       .  S
Zn2111     O2116   2.048       .  S
Zn2111     O2120   2.030       .  S
Zn2111     O2127   2.050       .  S
Zn2112     O2115   1.930       .  S
Zn2112     O2117   2.015       .  S
Zn2112     O2119   2.061       .  S
Zn2112     O2123   2.083       .  S
Zn2113     O2115   1.952       .  S
Zn2113     O2118   2.018       .  S
Zn2113     O2121   1.995       .  S
Zn2113     O2124   1.976       .  S
Zn2114     O2115   1.885       .  S
Zn2114     O2122   1.974       .  S
Zn2114     O2125   2.012       .  S
Zn2114     O2126   1.998       .  S
O2116      C2128   1.286       .  A
O2117      C2129   1.270       .  A
O2118      C2130   1.272       .  A
O2119      C2128   1.287       .  A
O2120      C2130   1.271       .  A
O2121      C2129   1.271       .  A
O2122      C2131   1.270       .  A
O2123      C2132   1.284       .  A
O2124      C2131   1.268       .  A
O2125      C2132   1.275       .  A
O2126      C2133   1.273       .  A
O2127      C2133   1.279       .  A
C2128      C2887   1.496       .  S
C2129      C2774   1.461       .  S
C2130      C2834   1.477       .  S
C2131      C2814   1.451       .  S
C2132      C2764   1.491       .  S
C2133      C2827   1.473       .  S
Zn2134     O2138   1.901       .  S
Zn2134     O2139   1.936       .  S
Zn2134     O2150   1.958       .  S
Zn2135     O2138   1.952       .  S
Zn2135     O2140   2.080       .  S
Zn2135     O2142   2.079       .  S
Zn2135     O2146   2.091       .  S
Zn2136     O2141   2.065       .  S
Zn2136     O2144   1.990       .  S
Zn2136     O2147   2.071       .  S
Zn2137     O2138   1.946       .  S
Zn2137     O2148   1.982       .  S
Zn2137     O2149   1.980       .  S
O2139      C2151   1.264       .  A
O2141      C2153   1.279       .  A
O2142      C2151   1.280       .  A
O2143      C2153   1.270       .  A
O2144      C2152   1.276       .  A
O2145      C2154   1.265       .  A
O2146      C2155   1.279       .  A
O2147      C2154   1.279       .  A
O2148      C2155   1.264       .  A
O2149      C2156   1.267       .  A
O2150      C2156   1.269       .  A
C2151      C2797   1.473       .  S
C2152      C2754   1.466       .  S
C2153      C2807   1.488       .  S
C2154      C2777   1.480       .  S
C2155      C2767   1.495       .  S
C2156      C2847   1.443       .  S
Zn2157     O2161   1.922       .  S
Zn2157     O2162   2.097       .  S
Zn2157     O2166   2.101       .  S
Zn2157     O2173   2.079       .  S
Zn2158     O2161   1.892       .  S
Zn2158     O2163   2.015       .  S
Zn2158     O2165   1.949       .  S
Zn2158     O2169   2.038       .  S
Zn2159     O2161   1.885       .  S
Zn2159     O2164   1.953       .  S
Zn2159     O2167   1.983       .  S
Zn2159     O2170   1.954       .  S
Zn2160     O2161   1.953       .  S
Zn2160     O2168   1.998       .  S
Zn2160     O2171   2.007       .  S
Zn2160     O2172   1.982       .  S
O2162      C2174   1.291       .  A
O2163      C2175   1.272       .  A
O2164      C2176   1.266       .  A
O2165      C2174   1.273       .  A
O2166      C2176   1.284       .  A
O2167      C2175   1.270       .  A
O2168      C2177   1.270       .  A
O2169      C2178   1.275       .  A
O2170      C2177   1.270       .  A
O2171      C2178   1.268       .  A
O2172      C2179   1.268       .  A
O2173      C2179   1.281       .  A
C2174      C3197   1.475       .  S
C2175      C2744   1.473       .  S
C2176      C2734   1.482       .  S
C2177      C2704   1.442       .  S
C2178      C2714   1.468       .  S
C2179      C2724   1.488       .  S
Zn2180     O2184   1.923       .  S
Zn2180     O2185   1.952       .  S
Zn2180     O2189   2.038       .  S
Zn2180     O2196   2.026       .  S
Zn2181     O2184   1.951       .  S
Zn2181     O2186   2.110       .  S
Zn2181     O2188   2.097       .  S
Zn2181     O2192   2.117       .  S
Zn2182     O2184   1.914       .  S
Zn2182     O2187   1.986       .  S
Zn2182     O2190   1.939       .  S
Zn2182     O2193   1.974       .  S
Zn2183     O2184   1.895       .  S
Zn2183     O2191   1.963       .  S
Zn2183     O2194   1.946       .  S
Zn2183     O2195   1.960       .  S
O2185      C2197   1.273       .  A
O2186      C2198   1.285       .  A
O2187      C2199   1.265       .  A
O2188      C2197   1.290       .  A
O2189      C2199   1.273       .  A
O2190      C2198   1.266       .  A
O2191      C2200   1.269       .  A
O2192      C2201   1.286       .  A
O2193      C2200   1.270       .  A
O2194      C2201   1.267       .  A
O2195      C2202   1.264       .  A
O2196      C2202   1.272       .  A
C2197      C3067   1.461       .  S
C2198      C2684   1.481       .  S
C2199      C2674   1.482       .  S
C2200      C2694   1.456       .  S
C2201      C2737   1.485       .  S
C2202      C2747   1.473       .  S
Zn2203     O2207   1.942       .  S
Zn2203     O2208   2.032       .  S
Zn2203     O2212   2.076       .  S
Zn2203     O2219   2.004       .  S
Zn2204     O2207   1.946       .  S
Zn2204     O2209   2.062       .  S
Zn2204     O2211   2.040       .  S
Zn2204     O2215   2.056       .  S
Zn2205     O2207   1.923       .  S
Zn2205     O2210   1.986       .  S
Zn2205     O2213   1.971       .  S
Zn2205     O2216   1.981       .  S
Zn2206     O2207   1.899       .  S
Zn2206     O2214   1.963       .  S
Zn2206     O2217   2.019       .  S
Zn2206     O2218   1.998       .  S
O2208      C2220   1.284       .  A
O2209      C2221   1.276       .  A
O2210      C2222   1.268       .  A
O2211      C2220   1.285       .  A
O2212      C2222   1.278       .  A
O2213      C2221   1.269       .  A
O2214      C2223   1.269       .  A
O2215      C2224   1.277       .  A
O2216      C2223   1.268       .  A
O2217      C2224   1.274       .  A
O2218      C2225   1.271       .  A
O2219      C2225   1.269       .  A
C2220      C2757   1.485       .  S
C2221      C2717   1.481       .  S
C2222      C2664   1.480       .  S
C2223      C2697   1.445       .  S
C2224      C2727   1.488       .  S
C2225      C2654   1.459       .  S
Zn2226     O2230   1.930       .  S
Zn2226     O2231   2.000       .  S
Zn2226     O2235   1.960       .  S
Zn2226     O2242   2.002       .  S
Zn2227     O2230   1.917       .  S
Zn2227     O2232   2.057       .  S
Zn2227     O2234   2.006       .  S
Zn2227     O2238   2.021       .  S
Zn2228     O2230   1.881       .  S
Zn2228     O2233   1.990       .  S
Zn2228     O2236   2.017       .  S
Zn2228     O2239   2.003       .  S
Zn2229     O2230   1.922       .  S
Zn2229     O2237   2.042       .  S
Zn2229     O2240   2.033       .  S
Zn2229     O2241   2.048       .  S
O2231      C2243   1.271       .  A
O2232      C2244   1.279       .  A
O2233      C2245   1.273       .  A
O2234      C2243   1.269       .  A
O2235      C2245   1.267       .  A
O2236      C2244   1.275       .  A
O2237      C2246   1.280       .  A
O2238      C2247   1.282       .  A
O2239      C2246   1.276       .  A
O2240      C2247   1.284       .  A
O2241      C2248   1.272       .  A
O2242      C2248   1.270       .  A
C2243      C2657   1.464       .  S
C2244      C2667   1.484       .  S
C2245      C2707   1.456       .  S
C2246      C2677   1.468       .  S
C2247      C2644   1.482       .  S
C2248      C2687   1.473       .  S
Zn2249     O2253   1.961       .  S
Zn2249     O2254   2.044       .  S
Zn2249     O2258   2.024       .  S
Zn2249     O2265   1.956       .  S
Zn2250     O2253   1.902       .  S
Zn2250     O2255   2.038       .  S
Zn2250     O2257   2.030       .  S
Zn2250     O2261   2.038       .  S
Zn2251     O2253   1.906       .  S
Zn2251     O2256   2.009       .  S
Zn2251     O2259   2.045       .  S
Zn2251     O2262   2.076       .  S
Zn2252     O2253   1.865       .  S
Zn2252     O2260   2.024       .  S
Zn2252     O2263   1.997       .  S
Zn2252     O2264   1.955       .  S
O2254      C2266   1.276       .  A
O2255      C2267   1.285       .  A
O2256      C2268   1.270       .  A
O2257      C2266   1.269       .  A
O2258      C2268   1.276       .  A
O2259      C2267   1.286       .  A
O2260      C2269   1.276       .  A
O2261      C2270   1.278       .  A
O2262      C2269   1.283       .  A
O2263      C2270   1.273       .  A
O2264      C2271   1.270       .  A
O2265      C2271   1.265       .  A
C2266      C2614   1.485       .  S
C2267      C2877   1.489       .  S
C2268      C2634   1.472       .  S
C2269      C2624   1.489       .  S
C2270      C2607   1.468       .  S
C2271      C2597   1.440       .  S
Zn2272     O2277   2.092       .  S
Zn2272     O2281   2.101       .  S
Zn2272     O2288   2.125       .  S
Zn2273     O2276   1.951       .  S
Zn2273     O2278   2.086       .  S
Zn2273     O2280   1.977       .  S
Zn2273     O2284   2.080       .  S
Zn2274     O2276   1.895   1_554  S
Zn2274     O2282   1.971   1_554  S
Zn2274     O2285   1.927   1_554  S
Zn2275     O2276   1.908       .  S
Zn2275     O2283   1.942       .  S
Zn2275     O2286   1.959       .  S
O2278      C2290   1.278       .  A
O2279      C2291   1.263       .  A
O2280      C2289   1.277       .  A
O2281      C2291   1.283       .  A
O2282      C2290   1.266       .  A
O2283      C2292   1.267       .  A
O2284      C2293   1.278       .  A
O2285      C2292   1.266       .  A
O2286      C2293   1.263       .  A
O2287      C2294   1.261       .  A
O2288      C2294   1.284       .  A
C2289      C2647   1.462       .  S
C2290      C2574   1.493       .  S
C2291      C2564   1.474       .  S
C2292      C2587   1.439       .  S
C2293      C2637   1.484       .  S
C2294      C2627   1.487       .  S
Zn2295     O2300   1.952       .  S
Zn2295     O2304   2.071       .  S
Zn2295     O2311   2.047       .  S
Zn2296     O2299   1.996       .  S
Zn2296     O2301   2.152       .  S
Zn2296     O2303   2.127       .  S
Zn2296     O2307   2.175       .  S
Zn2297     O2299   1.912       .  S
Zn2297     O2305   1.897       .  S
Zn2297     O2308   1.928       .  S
Zn2298     O2299   1.905       .  S
Zn2298     O2306   1.923       .  S
Zn2298     O2309   1.907       .  S
O2300      C2312   1.273       .  A
O2301      C2313   1.287       .  A
O2302      C2314   1.262       .  A
O2304      C2314   1.277       .  A
O2305      C2313   1.259       .  A
O2306      C2315   1.263       .  A
O2307      C2316   1.289       .  A
O2308      C2315   1.262       .  A
O2309      C2316   1.258       .  A
O2310      C2317   1.260       .  A
O2311      C2317   1.274       .  A
C2312      C3257   1.473       .  S
C2313      C2617   1.487       .  S
C2314      C2604   1.486       .  S
C2315      C2584   1.441       .  S
C2316      C2544   1.499       .  S
C2317      C2554   1.475       .  S
Zn2318     O2322   1.961       .  S
Zn2318     O2323   1.974       .  S
Zn2318     O2327   2.001       .  S
Zn2318     O2334   2.031       .  S
Zn2319     O2322   1.913       .  S
Zn2319     O2324   2.013       .  S
Zn2319     O2326   1.931       .  S
Zn2319     O2330   1.992       .  S
Zn2320     O2322   1.948       .  S
Zn2320     O2325   2.054       .  S
Zn2320     O2328   2.054       .  S
Zn2320     O2331   2.040       .  S
Zn2321     O2322   1.940       .  S
Zn2321     O2329   2.041       .  S
Zn2321     O2332   1.994       .  S
Zn2321     O2333   2.062       .  S
O2323      C2335   1.265       .  A
O2324      C2336   1.271       .  A
O2325      C2337   1.278       .  A
O2326      C2335   1.265       .  A
O2327      C2337   1.274       .  A
O2328      C2336   1.275       .  A
O2329      C2338   1.285       .  A
O2330      C2339   1.270       .  A
O2331      C2338   1.284       .  A
O2332      C2339   1.266       .  A
O2333      C2340   1.275       .  A
O2334      C2340   1.275       .  A
C2335      C2594   1.442       .  S
C2336      C2567   1.484       .  S
C2337      C2577   1.479       .  S
C2338      C2534   1.488       .  S
C2339      C2557   1.455       .  S
C2340      C2547   1.494       .  S
Zn2341     O2345   1.957       .  S
Zn2341     O2346   2.047       .  S
Zn2341     O2350   2.070       .  S
Zn2341     O2357   1.969       .  S
Zn2342     O2345   1.923       .  S
Zn2342     O2347   1.943       .  S
Zn2342     O2349   1.963       .  S
Zn2342     O2353   1.950       .  S
Zn2343     O2345   1.939       .  S
Zn2343     O2348   1.969       .  S
Zn2343     O2351   1.949       .  S
Zn2343     O2354   1.941       .  S
Zn2344     O2345   1.984       .  S
Zn2344     O2352   2.102       .  S
Zn2344     O2355   2.123       .  S
Zn2344     O2356   2.090       .  S
O2346      C2358   1.274       .  A
O2347      C2359   1.266       .  A
O2348      C2360   1.264       .  A
O2349      C2358   1.266       .  A
O2350      C2360   1.276       .  A
O2351      C2359   1.265       .  A
O2352      C2361   1.282       .  A
O2353      C2362   1.263       .  A
O2354      C2361   1.263       .  A
O2355      C2362   1.283       .  A
O2356      C2363   1.289       .  A
O2357      C2363   1.274       .  A
C2358      C2524   1.475       .  S
C2359      C2504   1.436       .  S
C2360      C2484   1.487       .  S
C2361      C2497   1.482       .  S
C2362      C2514   1.491       .  S
C2363      C3127   1.462       .  S
Zn2364     O2368   1.932       .  S
Zn2364     O2369   2.041       .  S
Zn2364     O2373   2.052       .  S
Zn2364     O2380   2.054       .  S
Zn2365     O2368   1.949       .  S
Zn2365     O2370   2.034       .  S
Zn2365     O2372   2.043       .  S
Zn2365     O2376   2.088       .  S
Zn2366     O2368   1.924       .  S
Zn2366     O2371   2.010       .  S
Zn2366     O2374   1.984       .  S
Zn2366     O2377   1.958       .  S
Zn2367     O2368   1.913       .  S
Zn2367     O2375   1.966       .  S
Zn2367     O2378   2.006       .  S
Zn2367     O2379   2.012       .  S
O2369      C2381   1.285       .  A
O2370      C2382   1.272       .  A
O2371      C2383   1.271       .  A
O2372      C2381   1.285       .  A
O2373      C2383   1.272       .  A
O2374      C2382   1.269       .  A
O2375      C2384   1.269       .  A
O2376      C2385   1.283       .  A
O2377      C2384   1.268       .  A
O2378      C2385   1.273       .  A
O2379      C2386   1.274       .  A
O2380      C2386   1.278       .  A
C2381      C2997   1.489       .  S
C2382      C2527   1.462       .  S
C2383      C2454   1.482       .  S
C2384      C2474   1.456       .  S
C2385      C2517   1.485       .  S
C2386      C2464   1.486       .  S
Zn2387     O2391   1.928       .  S
Zn2387     O2392   2.058       .  S
Zn2387     O2396   2.018       .  S
Zn2387     O2403   2.084       .  S
Zn2388     O2391   1.941       .  S
Zn2388     O2393   2.050       .  S
Zn2388     O2395   2.040       .  S
Zn2388     O2399   2.067       .  S
Zn2389     O2391   1.938       .  S
Zn2389     O2394   2.015       .  S
Zn2389     O2397   2.013       .  S
Zn2389     O2400   1.957       .  S
Zn2390     O2391   1.899       .  S
Zn2390     O2398   1.964       .  S
Zn2390     O2401   1.989       .  S
Zn2390     O2402   2.007       .  S
O2392      C2404   1.287       .  A
O2393      C2405   1.273       .  A
O2394      C2406   1.273       .  A
O2395      C2404   1.285       .  A
O2396      C2406   1.271       .  A
O2397      C2405   1.272       .  A
O2398      C2407   1.269       .  A
O2399      C2408   1.281       .  A
O2400      C2407   1.266       .  A
O2401      C2408   1.272       .  A
O2402      C2409   1.273       .  A
O2403      C2409   1.281       .  A
C2404      C2784   1.492       .  S
C2405      C2494   1.477       .  S
C2406      C2444   1.476       .  S
C2407      C2477   1.455       .  S
C2408      C2487   1.473       .  S
C2409      C2434   1.490       .  S
Zn2410     O2414   1.935       .  S
Zn2410     O2415   2.035       .  S
Zn2410     O2419   2.025       .  S
Zn2410     O2426   2.081       .  S
Zn2411     O2414   1.938       .  S
Zn2411     O2416   2.062       .  S
Zn2411     O2418   2.054       .  S
Zn2411     O2422   2.067       .  S
Zn2412     O2414   1.965       .  S
Zn2412     O2417   2.009       .  S
Zn2412     O2420   2.011       .  S
Zn2412     O2423   1.955       .  S
Zn2413     O2414   1.899       .  S
Zn2413     O2421   1.942       .  S
Zn2413     O2424   1.993       .  S
Zn2413     O2425   2.008       .  S
O2415      C2427   1.285       .  A
O2416      C2428   1.274       .  A
O2417      C2429   1.271       .  A
O2418      C2427   1.287       .  A
O2419      C2429   1.270       .  A
O2420      C2428   1.269       .  A
O2421      C2430   1.267       .  A
O2422      C2431   1.281       .  A
O2423      C2430   1.266       .  A
O2424      C2431   1.272       .  A
O2425      C2432   1.271       .  A
O2426      C2432   1.280       .  A
C2427      C2537   1.489       .  S
C2428      C2467   1.482       .  S
C2429      C2447   1.475       .  S
C2430      C2507   1.433       .  S
C2431      C2457   1.475       .  S
C2432      C2437   1.487       .  S
C2433      C2438   1.404       .  A
C2433      H2439   1.083       .  S
C2434      C2435   1.412       .  A
C2435      C2436   1.411       .  A
C2435      H2440   1.083       .  S
C2436      H2441   1.083       .  S
C2437      C2438   1.408       .  A
C2438      H2442   1.084       .  S
C2443      C2444   1.402       .  A
C2443      C2448   1.400       .  A
C2443      H2449   1.083       .  S
C2444      C2445   1.408       .  A
C2445      C2446   1.398       .  A
C2445      H2450   1.083       .  S
C2446      C2447   1.401       .  A
C2446      H2451   1.083       .  S
C2447      C2448   1.407       .  A
C2448      H2452   1.083       .  S
C2453      C2454   1.409       .  A
C2453      C2458   1.406       .  A
C2453      H2459   1.083       .  S
C2455      C2456   1.399       .  A
C2455      H2460   1.083       .  S
C2456      C2457   1.405       .  A
C2456      H2461   1.084       .  S
C2458      H2462   1.083       .  S
C2463      C2464   1.409       .  A
C2463      C2468   1.404       .  A
C2463      H2469   1.083       .  S
C2464      C2465   1.406       .  A
C2465      C2466   1.405       .  A
C2465      H2470   1.083       .  S
C2466      C2467   1.406       .  A
C2466      H2471   1.083       .  S
C2467      C2468   1.403       .  A
C2468      H2472   1.083       .  S
C2473      C2474   1.402       .  A
C2473      C2478   1.385       .  A
C2473      H2479   1.083       .  S
C2474      C2475   1.402       .  A
C2475      C2476   1.386       .  A
C2475      H2480   1.083       .  S
C2476      C2477   1.402       .  A
C2476      H2481   1.083       .  S
C2477      C2478   1.401       .  A
C2478      H2482   1.083       .  S
C2483      C2488   1.400       .  A
C2483      H2489   1.083       .  S
C2484      C2485   1.413       .  A
C2485      H2490   1.083       .  S
C2486      C2487   1.399       .  A
C2486      H2491   1.083   1_556  S
C2487      C2488   1.406       .  A
C2488      H2492   1.084       .  S
C2493      C2494   1.406       .  A
C2493      C2498   1.403       .  A
C2493      H2499   1.083       .  S
C2494      C2495   1.400       .  A
C2495      C2496   1.403       .  A
C2495      H2500   1.083       .  S
C2496      C2497   1.412       .  A
C2496      H2501   1.083       .  S
C2497      C2498   1.404       .  A
C2498      H2502   1.083       .  S
C2503      C2504   1.397       .  A
C2503      C2508   1.382       .  A
C2503      H2509   1.084       .  S
C2504      C2505   1.400       .  A
C2505      C2506   1.384       .  A
C2505      H2510   1.084       .  S
C2506      C2507   1.397       .  A
C2506      H2511   1.084       .  S
C2507      C2508   1.398       .  A
C2508      H2512   1.084       .  S
C2513      C2514   1.404       .  A
C2513      C2518   1.408       .  A
C2513      H2519   1.083       .  S
C2514      C2515   1.413       .  A
C2515      C2516   1.405       .  A
C2515      H2520   1.083       .  S
C2516      C2517   1.400       .  A
C2516      H2521   1.083       .  S
C2517      C2518   1.410       .  A
C2518      H2522   1.083       .  S
C2523      C2524   1.409       .  A
C2523      C2528   1.395       .  A
C2523      H2529   1.083       .  S
C2525      C2526   1.399       .  A
C2525      H2530   1.083       .  S
C2526      C2527   1.404       .  A
C2526      H2531   1.083       .  S
C2528      H2532   1.084       .  S
C2533      C2534   1.406       .  A
C2533      C2538   1.399       .  A
C2533      H2539   1.083       .  S
C2534      C2535   1.408       .  A
C2535      C2536   1.401       .  A
C2535      H2540   1.083       .  S
C2536      C2537   1.407       .  A
C2536      H2541   1.083       .  S
C2537      C2538   1.408       .  A
C2538      H2542   1.083       .  S
C2543      C2544   1.416       .  A
C2543      C2548   1.403       .  A
C2543      H2549   1.084       .  S
C2544      C2545   1.405       .  A
C2545      C2546   1.415       .  A
C2545      H2550   1.083       .  S
C2546      C2547   1.415       .  A
C2546      H2551   1.083       .  S
C2547      C2548   1.399       .  A
C2548      H2552   1.083       .  S
C2553      C2554   1.413       .  A
C2553      C2558   1.394       .  A
C2553      H2559   1.083       .  S
C2554      C2555   1.401       .  A
C2555      C2556   1.395       .  A
C2555      H2560   1.083       .  S
C2556      C2557   1.403       .  A
C2556      H2561   1.084       .  S
C2557      C2558   1.393       .  A
C2558      H2562   1.083       .  S
C2563      C2564   1.402       .  A
C2563      C2568   1.401       .  A
C2563      H2569   1.084       .  S
C2564      C2565   1.409       .  A
C2565      C2566   1.404   1_655  A
C2565      H2570   1.083       .  S
C2566      C2567   1.403       .  A
C2566      H2571   1.083       .  S
C2567      C2568   1.407   1_455  A
C2568      H2572   1.083       .  S
C2573      C2574   1.412   1_455  A
C2573      C2578   1.398       .  A
C2573      H2579   1.083       .  S
C2574      C2575   1.406       .  A
C2575      C2576   1.407   1_655  A
C2575      H2580   1.083       .  S
C2576      C2577   1.409       .  A
C2576      H2581   1.083   1_455  S
C2577      C2578   1.399       .  A
C2578      H2582   1.083       .  S
C2583      C2584   1.399       .  A
C2583      C2588   1.377       .  A
C2583      H2589   1.083       .  S
C2584      C2585   1.401   1_455  A
C2585      C2586   1.381       .  A
C2585      H2590   1.083       .  S
C2586      C2587   1.399       .  A
C2586      H2591   1.083       .  S
C2587      C2588   1.399   1_655  A
C2588      H2592   1.084       .  S
C2593      C2594   1.400       .  A
C2593      C2598   1.390   1_455  A
C2593      H2599   1.083       .  S
C2594      C2595   1.400       .  A
C2595      C2596   1.379       .  A
C2595      H2600   1.084       .  S
C2596      C2597   1.397   1_455  A
C2596      H2601   1.084       .  S
C2597      C2598   1.401       .  A
C2598      H2602   1.084       .  S
C2603      C2604   1.415   1_655  A
C2603      C2608   1.400       .  A
C2603      H2609   1.083       .  S
C2604      C2605   1.402       .  A
C2605      C2606   1.399   1_455  A
C2605      H2610   1.083       .  S
C2606      C2607   1.407       .  A
C2606      H2611   1.084   1_655  S
C2607      C2608   1.396       .  A
C2608      H2612   1.083       .  S
C2613      C2614   1.397       .  A
C2613      C2618   1.400   1_655  A
C2613      H2619   1.083       .  S
C2614      C2615   1.412   1_655  A
C2615      C2616   1.410       .  A
C2615      H2620   1.083       .  S
C2616      C2617   1.404       .  A
C2616      H2621   1.083       .  S
C2617      C2618   1.414       .  A
C2618      H2622   1.084       .  S
C2623      C2624   1.410       .  A
C2623      C2628   1.404       .  A
C2623      H2629   1.083       .  S
C2624      C2625   1.402       .  A
C2625      C2626   1.408       .  A
C2625      H2630   1.083       .  S
C2626      C2627   1.413       .  A
C2626      H2631   1.083       .  S
C2627      C2628   1.402       .  A
C2628      H2632   1.083       .  S
C2633      C2634   1.397       .  A
C2633      C2638   1.395       .  A
C2633      H2639   1.083       .  S
C2634      C2635   1.408       .  A
C2635      C2636   1.402       .  A
C2635      H2640   1.083       .  S
C2636      C2637   1.404       .  A
C2636      H2641   1.083       .  S
C2637      C2638   1.412       .  A
C2638      H2642   1.083       .  S
C2643      C2644   1.406       .  A
C2643      C2648   1.397       .  A
C2643      H2649   1.083       .  S
C2644      C2645   1.409       .  A
C2645      C2646   1.399       .  A
C2645      H2650   1.083       .  S
C2646      C2647   1.400       .  A
C2646      H2651   1.083       .  S
C2647      C2648   1.402       .  A
C2648      H2652   1.084       .  S
C2653      C2658   1.396       .  A
C2653      H2659   1.083       .  S
C2654      C2655   1.404       .  A
C2655      C2656   1.396       .  A
C2655      H2660   1.084       .  S
C2656      H2661   1.083       .  S
C2657      C2658   1.407       .  A
C2658      H2662   1.084       .  S
C2663      C2664   1.403       .  A
C2663      C2668   1.407       .  A
C2663      H2669   1.083       .  S
C2664      C2665   1.407       .  A
C2665      C2666   1.403       .  A
C2665      H2670   1.084       .  S
C2666      C2667   1.403       .  A
C2666      H2671   1.083       .  S
C2667      C2668   1.409       .  A
C2668      H2672   1.083       .  S
C2673      C2674   1.404       .  A
C2673      C2678   1.395       .  A
C2673      H2679   1.083       .  S
C2674      C2675   1.412       .  A
C2675      C2676   1.402       .  A
C2675      H2680   1.083       .  S
C2676      C2677   1.399       .  A
C2676      H2681   1.083       .  S
C2677      C2678   1.403       .  A
C2678      H2682   1.084       .  S
C2683      C2688   1.406       .  A
C2683      H2689   1.083       .  S
C2684      C2685   1.411       .  A
C2685      C2686   1.397       .  A
C2685      H2690   1.084       .  S
C2686      H2691   1.083       .  S
C2687      C2688   1.407       .  A
C2688      H2692   1.083       .  S
C2693      C2694   1.400       .  A
C2693      C2698   1.385       .  A
C2693      H2699   1.083       .  S
C2694      C2695   1.405       .  A
C2695      C2696   1.389       .  A
C2695      H2700   1.083       .  S
C2696      C2697   1.397       .  A
C2696      H2701   1.084       .  S
C2697      C2698   1.400       .  A
C2698      H2702   1.084       .  S
C2703      C2704   1.398       .  A
C2703      C2708   1.388       .  A
C2703      H2709   1.084       .  S
C2704      C2705   1.398       .  A
C2705      C2706   1.390       .  A
C2705      H2710   1.082       .  S
C2706      C2707   1.402       .  A
C2706      H2711   1.083       .  S
C2707      C2708   1.402       .  A
C2708      H2712   1.083       .  S
C2713      C2714   1.405       .  A
C2713      C2718   1.410       .  A
C2713      H2719   1.083       .  S
C2714      C2715   1.396       .  A
C2715      C2716   1.389       .  A
C2715      H2720   1.083       .  S
C2716      C2717   1.406       .  A
C2716      H2721   1.083       .  S
C2717      C2718   1.409       .  A
C2718      H2722   1.083       .  S
C2723      C2724   1.405   1_554  A
C2724      C2725   1.411       .  A
C2725      C2726   1.405   1_556  A
C2725      H2730   1.083       .  S
C2726      H2731   1.083       .  S
C2727      C2728   1.407       .  A
C2728      H2732   1.083       .  S
C2733      C2738   1.402       .  A
C2733      H2739   1.083       .  S
C2734      C2735   1.413       .  A
C2735      C2736   1.403       .  A
C2735      H2740   1.084       .  S
C2736      H2741   1.083       .  S
C2737      C2738   1.414       .  A
C2738      H2742   1.083       .  S
C2743      C2744   1.401       .  A
C2743      C2748   1.396       .  A
C2743      H2749   1.083       .  S
C2744      C2745   1.406       .  A
C2745      C2746   1.394       .  A
C2745      H2750   1.083       .  S
C2746      C2747   1.402       .  A
C2746      H2751   1.083       .  S
C2747      C2748   1.409       .  A
C2748      H2752   1.083       .  S
C2753      C2754   1.400       .  A
C2753      C2758   1.400       .  A
C2753      H2759   1.083       .  S
C2754      C2755   1.402       .  A
C2755      C2756   1.398       .  A
C2755      H2760   1.083       .  S
C2756      C2757   1.407       .  A
C2756      H2761   1.083       .  S
C2757      C2758   1.409       .  A
C2758      H2762   1.083       .  S
C2763      C2764   1.409       .  A
C2763      C2768   1.401       .  A
C2763      H2769   1.083       .  S
C2764      C2765   1.403       .  A
C2765      C2766   1.410       .  A
C2765      H2770   1.083       .  S
C2766      C2767   1.415       .  A
C2766      H2771   1.083       .  S
C2767      C2768   1.404       .  A
C2768      H2772   1.083       .  S
C2773      C2774   1.394       .  A
C2773      C2778   1.392       .  A
C2773      H2779   1.084       .  S
C2774      C2775   1.405       .  A
C2775      C2776   1.401       .  A
C2775      H2780   1.084       .  S
C2776      C2777   1.403       .  A
C2776      H2781   1.083       .  S
C2777      C2778   1.412       .  A
C2778      H2782   1.083       .  S
C2783      C2784   1.408       .  A
C2783      C2788   1.403       .  A
C2783      H2789   1.083       .  S
C2784      C2785   1.410       .  A
C2785      C2786   1.402       .  A
C2785      H2790   1.083       .  S
C2786      C2787   1.401       .  A
C2786      H2791   1.083       .  S
C2787      C2788   1.404       .  A
C2788      H2792   1.083       .  S
C2793      C2794   1.402       .  A
C2793      C2798   1.399       .  A
C2793      H2799   1.083       .  S
C2794      C2795   1.411       .  A
C2795      C2796   1.400       .  A
C2795      H2800   1.083       .  S
C2796      C2797   1.399       .  A
C2796      H2801   1.083       .  S
C2797      C2798   1.410       .  A
C2798      H2802   1.084       .  S
C2803      C2804   1.410       .  A
C2803      C2808   1.401       .  A
C2803      H2809   1.084       .  S
C2804      C2805   1.400       .  A
C2805      C2806   1.401       .  A
C2805      H2810   1.083       .  S
C2806      C2807   1.412       .  A
C2806      H2811   1.083       .  S
C2807      C2808   1.402       .  A
C2808      H2812   1.083       .  S
C2813      C2814   1.399       .  A
C2813      C2818   1.388       .  A
C2813      H2819   1.084       .  S
C2814      C2815   1.402       .  A
C2815      C2816   1.390       .  A
C2815      H2820   1.084       .  S
C2816      C2817   1.398       .  A
C2816      H2821   1.084       .  S
C2817      C2818   1.401       .  A
C2818      H2822   1.084       .  S
C2823      C2824   1.408       .  A
C2823      C2828   1.402       .  A
C2823      H2829   1.083       .  S
C2824      C2825   1.402       .  A
C2825      C2826   1.402       .  A
C2825      H2830   1.083       .  S
C2826      C2827   1.407       .  A
C2826      H2831   1.084       .  S
C2827      C2828   1.402       .  A
C2828      H2832   1.083       .  S
C2833      C2834   1.408       .  A
C2833      C2838   1.401       .  A
C2833      H2839   1.084       .  S
C2834      C2835   1.401       .  A
C2835      C2836   1.401       .  A
C2835      H2840   1.083       .  S
C2836      C2837   1.407       .  A
C2836      H2841   1.084       .  S
C2837      C2838   1.401       .  A
C2838      H2842   1.083       .  S
C2843      C2844   1.399       .  A
C2843      C2848   1.387       .  A
C2843      H2849   1.084       .  S
C2845      H2850   1.084       .  S
C2846      C2847   1.398       .  A
C2847      C2848   1.400       .  A
C2848      H2852   1.084       .  S
C2853      C2854   1.404       .  A
C2853      C2858   1.410       .  A
C2853      H2859   1.083       .  S
C2854      C2855   1.409       .  A
C2855      C2856   1.402       .  A
C2855      H2860   1.083       .  S
C2856      C2857   1.404       .  A
C2856      H2861   1.083       .  S
C2857      C2858   1.415       .  A
C2858      H2862   1.083       .  S
C2863      C2864   1.403       .  A
C2863      C2868   1.400       .  A
C2863      H2869   1.083       .  S
C2864      C2865   1.412       .  A
C2865      C2866   1.392       .  A
C2865      H2870   1.083       .  S
C2866      C2867   1.394       .  A
C2866      H2871   1.084       .  S
C2867      C2868   1.405       .  A
C2868      H2872   1.084       .  S
C2873      C2874   1.402       .  A
C2873      C2878   1.400       .  A
C2873      H2879   1.083       .  S
C2874      C2875   1.402       .  A
C2875      C2876   1.402       .  A
C2875      H2880   1.083       .  S
C2876      C2877   1.409       .  A
C2876      H2881   1.083       .  S
C2877      C2878   1.408       .  A
C2878      H2882   1.083       .  S
C2883      C2884   1.409       .  A
C2883      C2888   1.406       .  A
C2883      H2889   1.083       .  S
C2884      C2885   1.408       .  A
C2885      C2886   1.402       .  A
C2885      H2890   1.083       .  S
C2886      C2887   1.408       .  A
C2886      H2891   1.083       .  S
C2887      C2888   1.409       .  A
C2888      H2892   1.083       .  S
C2893      C2894   1.410       .  A
C2893      C2898   1.407       .  A
C2893      H2899   1.083       .  S
C2895      C2896   1.408       .  A
C2895      H2900   1.083       .  S
C2896      C2897   1.414       .  A
C2896      H2901   1.083       .  S
C2898      H2902   1.083       .  S
C2903      C2904   1.409       .  A
C2903      C2908   1.392       .  A
C2903      H2909   1.083       .  S
C2904      C2905   1.404       .  A
C2905      C2906   1.403       .  A
C2905      H2910   1.083       .  S
C2906      C2907   1.406       .  A
C2906      H2911   1.083       .  S
C2907      C2908   1.396       .  A
C2908      H2912   1.084       .  S
C2913      C2918   1.404   1_554  A
C2913      H2919   1.083       .  S
C2914      C2915   1.407       .  A
C2915      H2920   1.083       .  S
C2916      C2917   1.403   1_554  A
C2916      H2921   1.084       .  S
C2917      C2918   1.411       .  A
C2918      H2922   1.083       .  S
C2923      C2924   1.397       .  A
C2923      C2928   1.398       .  A
C2923      H2929   1.083       .  S
C2924      C2925   1.407       .  A
C2925      C2926   1.404       .  A
C2925      H2930   1.084       .  S
C2926      C2927   1.404       .  A
C2926      H2931   1.083       .  S
C2927      C2928   1.413       .  A
C2928      H2932   1.083       .  S
C2933      C2934   1.402       .  A
C2933      C2938   1.384       .  A
C2933      H2939   1.084       .  S
C2934      C2935   1.402       .  A
C2935      C2936   1.390       .  A
C2935      H2940   1.083       .  S
C2936      C2937   1.402       .  A
C2936      H2941   1.083       .  S
C2937      C2938   1.400       .  A
C2938      H2942   1.084       .  S
C2943      C2944   1.400       .  A
C2943      C2948   1.386       .  A
C2943      H2949   1.084       .  S
C2944      C2945   1.396       .  A
C2945      C2946   1.383       .  A
C2945      H2950   1.084       .  S
C2946      C2947   1.400       .  A
C2946      H2951   1.084       .  S
C2947      C2948   1.398       .  A
C2948      H2952   1.084       .  S
C2953      C2958   1.403       .  A
C2953      H2959   1.083       .  S
C2954      C2955   1.408       .  A
C2955      C2956   1.405       .  A
C2955      H2960   1.083       .  S
C2956      H2961   1.083       .  S
C2957      C2958   1.405       .  A
C2958      H2962   1.083       .  S
C2963      C2964   1.402       .  A
C2963      C2968   1.404       .  A
C2963      H2969   1.083       .  S
C2964      C2965   1.406       .  A
C2965      C2966   1.402       .  A
C2965      H2970   1.084       .  S
C2966      C2967   1.404       .  A
C2966      H2971   1.083       .  S
C2967      C2968   1.409       .  A
C2968      H2972   1.083       .  S
C2973      C2974   1.406       .  A
C2973      C2978   1.398       .  A
C2973      H2979   1.084       .  S
C2975      C2976   1.398       .  A
C2975      H2980   1.083       .  S
C2976      C2977   1.407       .  A
C2976      H2981   1.083       .  S
C2978      H2982   1.083       .  S
C2983      C2984   1.404       .  A
C2983      C2988   1.405       .  A
C2983      H2989   1.083       .  S
C2984      C2985   1.412       .  A
C2985      C2986   1.409       .  A
C2985      H2990   1.083       .  S
C2986      C2987   1.404       .  A
C2986      H2991   1.083       .  S
C2987      C2988   1.408       .  A
C2988      H2992   1.084       .  S
C2993      C2994   1.407       .  A
C2993      C2998   1.400       .  A
C2993      H2999   1.083       .  S
C2994      C2995   1.407       .  A
C2995      C2996   1.400       .  A
C2995      H3000   1.083       .  S
C2996      C2997   1.407       .  A
C2996      H3001   1.083       .  S
C2997      C2998   1.407       .  A
C2998      H3002   1.083       .  S
C3003      C3004   1.402       .  A
C3003      C3008   1.400   1_565  A
C3003      H3009   1.083       .  S
C3004      C3005   1.404   1_565  A
C3005      C3006   1.400       .  A
C3005      H3010   1.083       .  S
C3006      C3007   1.402       .  A
C3006      H3011   1.083       .  S
C3007      C3008   1.405       .  A
C3008      H3012   1.084       .  S
C3013      C3014   1.406       .  A
C3013      C3018   1.410   1_565  A
C3013      H3019   1.083       .  S
C3014      C3015   1.407   1_565  A
C3015      C3016   1.407       .  A
C3015      H3020   1.083       .  S
C3016      C3017   1.406       .  A
C3016      H3021   1.083       .  S
C3017      C3018   1.410       .  A
C3018      H3022   1.083       .  S
C3023      C3024   1.407       .  A
C3023      C3028   1.400       .  A
C3024      C3025   1.407       .  A
C3025      C3026   1.399       .  A
C3025      H3030   1.083       .  S
C3026      C3027   1.407       .  A
C3026      H3031   1.083       .  S
C3027      C3028   1.407       .  A
C3028      H3032   1.083       .  S
C3033      C3034   1.407   1_655  A
C3033      C3038   1.405       .  A
C3033      H3039   1.083       .  S
C3034      C3035   1.406       .  A
C3035      C3036   1.405       .  A
C3035      H3040   1.083       .  S
C3036      C3037   1.406   1_455  A
C3036      H3041   1.083       .  S
C3037      C3038   1.404       .  A
C3038      H3042   1.083       .  S
C3043      C3044   1.404       .  A
C3043      C3048   1.406       .  A
C3043      H3049   1.083       .  S
C3044      C3045   1.405       .  A
C3045      C3046   1.402   1_655  A
C3045      H3050   1.084       .  S
C3046      C3047   1.403       .  A
C3046      H3051   1.083       .  S
C3047      C3048   1.406   1_455  A
C3048      H3052   1.083       .  S
C3053      C3054   1.400       .  A
C3053      C3058   1.387   1_645  A
C3053      H3059   1.083       .  S
C3054      C3055   1.400   1_544  A
C3055      C3056   1.379       .  A
C3055      H3060   1.084   1_565  S
C3056      C3057   1.399   1_656  A
C3056      H3061   1.084       .  S
C3057      C3058   1.402       .  A
C3058      H3062   1.083       .  S
C3063      C3064   1.408       .  A
C3063      C3068   1.398       .  A
C3063      H3069   1.083       .  S
C3064      C3065   1.407       .  A
C3065      C3066   1.398       .  A
C3065      H3070   1.083       .  S
C3066      C3067   1.402       .  A
C3066      H3071   1.084       .  S
C3067      C3068   1.401       .  A
C3068      H3072   1.084       .  S
C3073      C3074   1.404       .  A
C3073      C3078   1.405   1_655  A
C3073      H3079   1.083       .  S
C3074      C3075   1.407   1_655  A
C3075      C3076   1.405       .  A
C3075      H3080   1.083       .  S
C3076      C3077   1.406       .  A
C3076      H3081   1.083       .  S
C3077      C3078   1.408       .  A
C3078      H3082   1.083       .  S
C3083      C3084   1.408       .  A
C3083      C3088   1.406   1_655  A
C3083      H3089   1.083       .  S
C3084      C3085   1.404       .  A
C3085      C3086   1.403       .  A
C3085      H3090   1.083       .  S
C3086      C3087   1.406   1_655  A
C3086      H3091   1.083       .  S
C3087      C3088   1.403       .  A
C3088      H3092   1.083       .  S
C3093      C3094   1.400   1_455  A
C3093      C3098   1.379   1_565  A
C3093      H3099   1.084       .  S
C3094      C3095   1.399       .  A
C3095      C3096   1.383   1_665  A
C3095      H3100   1.083       .  S
C3096      C3097   1.402       .  A
C3096      H3101   1.083       .  S
C3097      C3098   1.399       .  A
C3098      H3102   1.084       .  S
C3103      C3104   1.406   1_545  A
C3103      C3108   1.402       .  A
C3103      H3109   1.084       .  S
C3104      C3105   1.406       .  A
C3105      C3106   1.413   1_565  A
C3105      H3110   1.083       .  S
C3106      C3107   1.411       .  A
C3106      H3111   1.083       .  S
C3107      C3108   1.404       .  A
C3108      H3112   1.083       .  S
C3113      C3114   1.402       .  A
C3113      C3118   1.400   1_565  A
C3113      H3119   1.083       .  S
C3114      C3115   1.405   1_565  A
C3115      C3116   1.401       .  A
C3115      H3120   1.083       .  S
C3116      C3117   1.404       .  A
C3116      H3121   1.083       .  S
C3117      C3118   1.406       .  A
C3118      H3122   1.083       .  S
C3123      C3124   1.407       .  A
C3123      C3128   1.397       .  A
C3123      H3129   1.083       .  S
C3124      C3125   1.408       .  A
C3125      C3126   1.399       .  A
C3125      H3130   1.083       .  S
C3126      C3127   1.401       .  A
C3126      H3131   1.083       .  S
C3127      C3128   1.401       .  A
C3128      H3132   1.084       .  S
C3133      C3134   1.406       .  A
C3133      C3138   1.405   1_565  A
C3133      H3139   1.083       .  S
C3134      C3135   1.411   1_565  A
C3135      C3136   1.410       .  A
C3135      H3140   1.083       .  S
C3136      C3137   1.404       .  A
C3136      H3141   1.083       .  S
C3137      C3138   1.407       .  A
C3138      H3142   1.084   1_545  S
C3143      C3144   1.404   1_565  A
C3143      C3148   1.398       .  A
C3143      H3149   1.084       .  S
C3144      C3145   1.400       .  A
C3145      C3146   1.399       .  A
C3145      H3150   1.083       .  S
C3146      C3147   1.407   1_545  A
C3146      H3151   1.083       .  S
C3147      C3148   1.402       .  A
C3148      H3152   1.083       .  S
C3153      C3154   1.408       .  A
C3153      C3158   1.401       .  A
C3153      H3159   1.083       .  S
C3154      C3155   1.408       .  A
C3155      C3156   1.402       .  A
C3155      H3160   1.083       .  S
C3156      C3157   1.408       .  A
C3156      H3161   1.083       .  S
C3157      C3158   1.407       .  A
C3158      H3162   1.083       .  S
C3163      C3164   1.409       .  A
C3163      C3168   1.404       .  A
C3163      H3169   1.083       .  S
C3164      C3165   1.404       .  A
C3165      C3166   1.403       .  A
C3165      H3170   1.083       .  S
C3166      C3167   1.407       .  A
C3166      H3171   1.084       .  S
C3167      C3168   1.402       .  A
C3168      H3172   1.083       .  S
C3173      C3174   1.408       .  A
C3173      C3178   1.403       .  A
C3173      H3179   1.083       .  S
C3174      C3175   1.403       .  A
C3175      C3176   1.404       .  A
C3175      H3180   1.083       .  S
C3176      C3177   1.408       .  A
C3176      H3181   1.083       .  S
C3177      C3178   1.404       .  A
C3178      H3182   1.083       .  S
C3183      C3184   1.401       .  A
C3183      C3188   1.387       .  A
C3183      H3189   1.083       .  S
C3185      C3186   1.383       .  A
C3185      H3190   1.084       .  S
C3186      H3191   1.084       .  S
C3187      C3188   1.402       .  A
C3188      H3192   1.083   1_545  S
C3193      C3194   1.410       .  A
C3193      C3198   1.397       .  A
C3193      H3199   1.083       .  S
C3194      C3195   1.397       .  A
C3195      C3196   1.397       .  A
C3195      H3200   1.083       .  S
C3196      C3197   1.412       .  A
C3196      H3201   1.083       .  S
C3197      C3198   1.398       .  A
C3198      H3202   1.083       .  S
C3203      C3204   1.406       .  A
C3203      C3208   1.405       .  A
C3203      H3209   1.083       .  S
C3204      C3205   1.411       .  A
C3205      C3206   1.398       .  A
C3205      H3210   1.083       .  S
C3206      C3207   1.399       .  A
C3206      H3211   1.084       .  S
C3207      C3208   1.407       .  A
C3208      H3212   1.084       .  S
C3213      C3214   1.409       .  A
C3213      C3218   1.402       .  A
C3213      H3219   1.083       .  S
C3214      C3215   1.402       .  A
C3215      C3216   1.402       .  A
C3215      H3220   1.083       .  S
C3216      C3217   1.406       .  A
C3216      H3221   1.083       .  S
C3217      C3218   1.401       .  A
C3218      H3222   1.083       .  S
C3223      C3224   1.399       .  A
C3223      C3228   1.379   1_545  A
C3223      H3229   1.084       .  S
C3224      C3225   1.400       .  A
C3225      C3226   1.386       .  A
C3225      H3230   1.084       .  S
C3226      C3227   1.398   1_545  A
C3226      H3231   1.084       .  S
C3227      C3228   1.395       .  A
C3228      H3232   1.084       .  S
C3233      C3234   1.402       .  A
C3233      C3238   1.409   1_545  A
C3233      H3239   1.083       .  S
C3234      C3235   1.411   1_545  A
C3235      C3236   1.405       .  A
C3235      H3240   1.083       .  S
C3236      C3237   1.402       .  A
C3236      H3241   1.083       .  S
C3237      C3238   1.414       .  A
C3238      H3242   1.083       .  S
C3243      C3244   1.410   1_545  A
C3243      C3248   1.395       .  A
C3243      H3249   1.083       .  S
C3244      C3245   1.404       .  A
C3245      C3246   1.401   1_565  A
C3245      H3250   1.083       .  S
C3246      C3247   1.405       .  A
C3246      H3251   1.084   1_545  S
C3247      C3248   1.397       .  A
C3248      H3252   1.083       .  S
C3253      C3254   1.399       .  A
C3253      C3258   1.400       .  A
C3253      H3259   1.083       .  S
C3254      C3255   1.412       .  A
C3255      C3256   1.399       .  A
C3255      H3260   1.084       .  S
C3256      C3257   1.397       .  A
C3256      H3261   1.083       .  S
C3257      C3258   1.411       .  A
C3258      H3262   1.084       .  S
C3263      C3264   1.402       .  A
C3263      C3268   1.399       .  A
C3263      H3269   1.084       .  S
C3264      C3265   1.405       .  A
C3265      C3266   1.405       .  A
C3265      H3270   1.083       .  S
C3266      C3267   1.409       .  A
C3266      H3271   1.083       .  S
C3267      C3268   1.409       .  A
C3268      H3272   1.083       .  S
C3273      C3274   1.415       .  A
C3273      C3278   1.403       .  A
C3273      H3279   1.083       .  S
C3274      C3275   1.400       .  A
C3275      C3276   1.404       .  A
C3275      H3280   1.083       .  S
C3276      C3277   1.413       .  A
C3276      H3281   1.083       .  S
C3277      C3278   1.398       .  A
C3278      H3282   1.083       .  S
C3283      C3284   1.411       .  A
C3283      C3288   1.396       .  A
C3283      H3289   1.083       .  S
C3285      C3286   1.393       .  A
C3285      H3290   1.083       .  S
C3286      C3287   1.411       .  A
C3286      H3291   1.083       .  S
C3288      H3292   1.083       .  S
C3293      C3294   1.410       .  A
C3293      C3298   1.402       .  A
C3293      H3299   1.083       .  S
C3294      C3295   1.406       .  A
C3295      C3296   1.400       .  A
C3295      H3300   1.083       .  S
C3296      C3297   1.404       .  A
C3296      H3301   1.083       .  S
C3297      C3298   1.401       .  A
C3298      H3302   1.083       .  S
C3303      C3304   1.400       .  A
C3303      C3308   1.398       .  A
C3303      H3309   1.083       .  S
C3304      C3305   1.413       .  A
C3305      C3306   1.402       .  A
C3305      H3310   1.083       .  S
C3306      C3307   1.400       .  A
C3306      H3311   1.083       .  S
C3307      C3308   1.412       .  A
C3308      H3312   1.084       .  S
C3313      C3318   1.395       .  A
C3313      H3319   1.083       .  S
C3314      C3315   1.412       .  A
C3315      H3320   1.083       .  S
C3316      C3317   1.401   1_554  A
C3316      H3321   1.083       .  S
C3317      C3318   1.415       .  A
C3318      H3322   1.083       .  S
C3323      C3324   1.401       .  A
C3323      C3328   1.387       .  A
C3323      H3329   1.083       .  S
C3324      C3325   1.405       .  A
C3325      C3326   1.391       .  A
C3325      H3330   1.083       .  S
C3326      C3327   1.400       .  A
C3326      H3331   1.083       .  S
C3327      C3328   1.404       .  A
C3328      H3332   1.084       .  S
C3333      C3334   1.407       .  A
C3333      C3338   1.401       .  A
C3333      H3339   1.083       .  S
C3334      C3335   1.406       .  A
C3335      C3336   1.397       .  A
C3335      H3340   1.083       .  S
C3336      C3337   1.407       .  A
C3336      H3341   1.083       .  S
C3337      C3338   1.407       .  A
C3338      H3342   1.083       .  S
C3343      C3344   1.408       .  A
C3343      C3348   1.401       .  A
C3343      H3349   1.083       .  S
C3344      C3345   1.404       .  A
C3345      C3346   1.404       .  A
C3345      H3350   1.083       .  S
C3346      C3347   1.408       .  A
C3346      H3351   1.083       .  S
C3347      C3348   1.401       .  A
C3348      H3352   1.084       .  S
C3353      C3354   1.408       .  A
C3353      H3359   1.083       .  S
C3354      C3355   1.400       .  A
C3355      H3360   1.083       .  S
C3356      C3357   1.411       .  A
C3356      H3361   1.083       .  S
C3357      C3358   1.405   1_556  A
C3358      H3362   1.083       .  S
C3363      C3364   1.403       .  A
C3363      C3368   1.386       .  A
C3363      H3369   1.084       .  S
C3364      C3365   1.399       .  A
C3365      C3366   1.385       .  A
C3365      H3370   1.084       .  S
C3366      C3367   1.400       .  A
C3366      H3371   1.084       .  S
C3367      C3368   1.397       .  A
C3368      H3372   1.084       .  S
C3373      C3378   1.402       .  A
C3373      H3379   1.083       .  S
C3374      C3375   1.412       .  A
C3375      C3376   1.409       .  A
C3375      H3380   1.084       .  S
C3376      H3381   1.083       .  S
C3377      C3378   1.415       .  A
C3378      H3382   1.083       .  S
C3383      C3384   1.392       .  A
C3383      C3388   1.390       .  A
C3383      H3389   1.084       .  S
C3384      C3385   1.406       .  A
C3385      C3386   1.398       .  A
C3385      H3390   1.084       .  S
C3386      C3387   1.400       .  A
C3386      H3391   1.083       .  S
C3387      C3388   1.412       .  A
C3388      H3392   1.083       .  S
