geometry optimzed in LAMMPS
_audit_creation_date              2020-11-30 
_audit_creation_method            'lammps2cif' 
_symmetry_space_group_name_H-M    'P1' 
_symmetry_Int_Tables_number       1 
_symmetry_cell_setting            triclinic 
loop_ 
_symmetry_equiv_pos_as_xyz 
  x,y,z 
_cell_length_a                    34.218983048010784 
_cell_length_b                    34.370107477937516 
_cell_length_c                    72.09995805911143 
_cell_angle_alpha                 89.8010652357105 
_cell_angle_beta                  90.0121203236896 
_cell_angle_gamma                 120.10772173230448 
loop_ 
_atom_site_label 
_atom_site_type_symbol 
_atom_site_fract_x 
_atom_site_fract_y 
_atom_site_fract_z 
_atom_site_charge 
Zn1        Zn  0.79930638  0.26875205  0.47923721     1.49720
Zn2        Zn  0.85211781  0.22240894  0.49466778     1.49360
Zn3        Zn  0.87944808  0.31845072  0.50816330     1.49110
Zn4        Zn  0.78700537  0.23387064  0.52125755     1.49480
O5          O  0.82886578  0.26098832  0.50096047    -1.84040
O6          O  0.81903401  0.25101004  0.45547178    -0.74670
O7          O  0.91776457  0.25139684  0.49814198    -0.74490
O8          O  0.86780335  0.36778934  0.49941792    -0.74010
O9          O  0.84675149  0.21091885  0.46792419    -0.74690
O10         O  0.81431216  0.33323028  0.47813225    -0.74290
O11         O  0.93861223  0.32387646  0.49913018    -0.74870
O12         O  0.81171300  0.27216856  0.54485629    -0.74260
O13         O  0.81852564  0.16196281  0.50586793    -0.75020
O14         O  0.88083150  0.32495300  0.53594071    -0.74410
O15         O  0.77064531  0.16906343  0.52450822    -0.74870
O16         O  0.72711337  0.22612118  0.51343203    -0.74780
O17         O  0.73073318  0.23470208  0.48283232    -0.74570
C18         C  0.83688986  0.22629150  0.45383736     0.77220
C19         C  0.94808066  0.29256567  0.49705389     0.77710
C20         C  0.83884550  0.36734218  0.48816682     0.76670
C21         C  0.85027361  0.30660853  0.54832707     0.77040
C22         C  0.78402973  0.14510308  0.51627963     0.78180
C23         C  0.70819087  0.22433387  0.49796225     0.77230
Zn24       Zn  0.92281532  0.14032825  0.35826226     1.49720
Zn25       Zn  0.88061321  0.19737689  0.34196902     1.49360
Zn26       Zn  0.97247343  0.21739387  0.32912310     1.49110
Zn27       Zn  0.88516424  0.12424745  0.31741014     1.49480
O28         O  0.91509103  0.16863070  0.33656171    -1.84040
O29         O  0.90126446  0.15818359  0.38122791    -0.74670
O30         O  0.90812241  0.26033497  0.33285454    -0.74490
O31         O  0.02254282  0.20976231  0.33935116    -0.74010
O32         O  0.87669810  0.20144901  0.36901398    -0.74690
O33         O  0.98814633  0.15492826  0.35970990    -0.74290
O34         O  0.97914908  0.27701664  0.33648129    -0.74870
O35         O  0.91949436  0.14903038  0.29280766    -0.74260
O36         O  0.81690700  0.16009640  0.33459827    -0.75020
O37         O  0.97752236  0.21527547  0.30165025    -0.74410
O38         O  0.81913846  0.10753646  0.31737468    -0.74870
O39         O  0.88060658  0.06479395  0.32482299    -0.74780
O40         O  0.88702812  0.07339369  0.35546941    -0.74570
C41         C  0.88378371  0.18321885  0.38292583     0.77220
C42         C  0.94954257  0.28904294  0.33531055     0.77710
C43         C  0.02381281  0.18245463  0.35089087     0.76670
C44         C  0.95575096  0.18612304  0.28921299     0.77040
C45         C  0.79731318  0.12328572  0.32583287     0.78180
C46         C  0.87681113  0.04864075  0.34113579     0.77230
Zn47       Zn  0.78592492  0.76509543  0.35505205     1.49720
Zn48       Zn  0.86278915  0.81686545  0.32384273     1.49360
Zn49       Zn  0.87190858  0.75834532  0.35186085     1.49110
Zn50       Zn  0.79612558  0.71323306  0.31995096     1.49480
O51         O  0.82737400  0.76240888  0.33746918    -1.84040
O52         O  0.79495578  0.82879124  0.35577209    -0.74670
O53         O  0.93043295  0.84227025  0.32626758    -0.74490
O54         O  0.84749685  0.72927357  0.37620262    -0.74010
O55         O  0.85091764  0.86202128  0.33509114    -0.74690
O56         O  0.79203806  0.74396229  0.38055771    -0.74290
O57         O  0.93038879  0.81717858  0.35454501    -0.74870
O58         O  0.83220371  0.68035092  0.31762644    -0.74260
O59         O  0.84219714  0.81130610  0.29745018    -0.75020
O60         O  0.88582227  0.71751117  0.33884651    -0.74410
O61         O  0.79119060  0.73862686  0.29475970    -0.74870
O62         O  0.73198087  0.67169126  0.32961000    -0.74780
O63         O  0.72305837  0.71609789  0.34919982    -0.74570
C64         C  0.82430052  0.86361108  0.34693897     0.77220
C65         C  0.95108886  0.84439268  0.34128745     0.77710
C66         C  0.81542460  0.72668106  0.38595200     0.76670
C67         C  0.86798196  0.68799364  0.32629867     0.77040
C68         C  0.81190809  0.77861154  0.28818326     0.78180
C69         C  0.70709823  0.67870769  0.34073590     0.77230
Zn70       Zn  0.70285214  0.58242085  0.48463861     1.49720
Zn71       Zn  0.76502781  0.63118596  0.52003211     1.49360
Zn72       Zn  0.72500298  0.52707507  0.51412928     1.49110
Zn73       Zn  0.79899563  0.59188211  0.48737002     1.49480
O74         O  0.74771180  0.58380537  0.50164078    -1.84040
O75         O  0.68737914  0.62951870  0.49170129    -0.74670
O76         O  0.73145153  0.60282844  0.54454684    -0.74490
O77         O  0.66805063  0.48151239  0.50169546    -0.74010
O78         O  0.74422927  0.67377096  0.51055178    -0.74690
O79         O  0.64726927  0.51898915  0.48260887    -0.74290
O80         O  0.70744099  0.53010129  0.54039469    -0.74870
O81         O  0.80373058  0.53607641  0.48642981    -0.74260
O82         O  0.83449373  0.66571680  0.52336036    -0.75020
O83         O  0.76872088  0.50398878  0.51276358    -0.74410
O84         O  0.85451668  0.63815604  0.49955359    -0.74870
O85         O  0.79963178  0.61455979  0.46181454    -0.74780
O86         O  0.73148050  0.60645110  0.45971961    -0.74570
C87         C  0.71111848  0.66671070  0.50011985     0.77220
C88         C  0.71053135  0.56206285  0.55031417     0.77710
C89         C  0.64021384  0.48236367  0.49022655     0.76670
C90         C  0.79306335  0.50629591  0.49897069     0.77040
C91         C  0.86464048  0.66425177  0.51336874     0.78180
C92         C  0.77056591  0.61984984  0.45296013     0.77230
Zn93       Zn  0.21842774  0.11641406  0.31747781     1.49720
Zn94       Zn  0.20367264  0.08181208  0.35897048     1.49360
Zn95       Zn  0.22765413  0.03141535  0.32875819     1.49110
Zn96       Zn  0.29913158  0.12498841  0.34137453     1.49480
O97         O  0.23654422  0.08866967  0.33636113    -1.84040
O98         O  0.16649738  0.12326591  0.32757522    -0.74670
O99         O  0.14863671  0.01942980  0.35864763    -0.74490
O100        O  0.22034336  0.02647521  0.30096201    -0.74010
O101        O  0.17834032  0.12330053  0.35795225    -0.74690
O102        O  0.20316155  0.07921355  0.29339834    -0.74290
O103        O  0.16702257  0.98234991  0.33836639    -0.74870
O104        O  0.33478801  0.09837682  0.33232498    -0.74260
O105        O  0.24359426  0.09572875  0.38205098    -0.75020
O106        O  0.28248087  0.02663969  0.33669373    -0.74410
O107        O  0.30982193  0.12853565  0.36839165    -0.74870
O108        O  0.32278080  0.18674517  0.33194761    -0.74780
O109        O  0.26872414  0.18145211  0.31363026    -0.74570
C110        C  0.15973510  0.13115328  0.34425461     0.77220
C111        C  0.13850150  0.98444050  0.34909126     0.77710
C112        C  0.20768558  0.04551663  0.28909569     0.76670
C113        C  0.32385992  0.05783561  0.33558058     0.77040
C114        C  0.28660352  0.11591864  0.38311874     0.78180
C115        C  0.30736000  0.20505208  0.32118641     0.77230
Zn116      Zn  0.42134799  0.13887325  0.48701076     1.49720
Zn117      Zn  0.46539494  0.22082017  0.51598468     1.49360
Zn118      Zn  0.40441643  0.22091049  0.48630152     1.49110
Zn119      Zn  0.36377171  0.14932850  0.51807356     1.49480
O120        O  0.41393306  0.18186246  0.50171770    -1.84040
O121        O  0.48694234  0.15065924  0.48978418    -0.74670
O122        O  0.48946939  0.28741791  0.51068175    -0.74490
O123        O  0.37668019  0.18979298  0.46271150    -0.74010
O124        O  0.51425342  0.21185126  0.50694202    -0.74690
O125        O  0.40232974  0.14170274  0.46036938    -0.74290
O126        O  0.46218998  0.27991260  0.48208583    -0.74870
O127        O  0.33290096  0.18629509  0.52276692    -0.74260
O128        O  0.45706590  0.19973456  0.54295507    -0.75020
O129        O  0.36270491  0.23529038  0.49936972    -0.74410
O130        O  0.38843167  0.13865686  0.54216241    -0.74870
O131        O  0.32186526  0.08993298  0.50557692    -0.74780
O132        O  0.37314248  0.07526383  0.49422823    -0.74570
C133        C  0.52013879  0.18339663  0.49815498     0.77220
C134        C  0.49017888  0.30370350  0.49463447     0.77710
C135        C  0.38042168  0.15984642  0.45390375     0.76670
C136        C  0.33743690  0.22017301  0.51358270     0.77040
C137        C  0.42616366  0.16325879  0.55030242     0.78180
C138        C  0.33195332  0.06268825  0.49793530     0.77230
Zn139      Zn  0.20089151  0.48247844  0.98836525     1.49720
Zn140      Zn  0.20423833  0.42216341  0.01786775     1.49360
Zn141      Zn  0.12376197  0.43659077  0.01952580     1.49110
Zn142      Zn  0.13393687  0.38010853  0.98525985     1.49480
O143        O  0.16401012  0.42982794  0.00246741    -1.84040
O144        O  0.26762716  0.50817280  0.99357368    -0.74670
O145        O  0.17358516  0.39144449  0.04115069    -0.74490
O146        O  0.13010049  0.49919592  0.01686780    -0.74010
O147        O  0.26258413  0.48023529  0.02194294    -0.74690
O148        O  0.18802722  0.52848395  0.99730822    -0.74290
O149        O  0.13100691  0.42129296  0.04640028    -0.74870
O150        O  0.07093419  0.33937398  0.99563290    -0.74260
O151        O  0.22080504  0.38280828  0.00532175    -0.75020
O152        O  0.06141131  0.38717131  0.01355278    -0.74410
O153        O  0.17201973  0.34873421  0.98230050    -0.74870
O154        O  0.12618007  0.40449184  0.96017291    -0.74780
O155        O  0.18095697  0.47582226  0.96141422    -0.74570
C156        C  0.28517627  0.50878830  0.00930634     0.77220
C157        C  0.14692198  0.39657495  0.05169825     0.77710
C158        C  0.15957437  0.53225276  0.00725298     0.76670
C159        C  0.04610881  0.34924228  0.00553923     0.77040
C160        C  0.20670695  0.35592822  0.99174812     0.78180
C161        C  0.14794768  0.44366549  0.95285263     0.77230
Zn162      Zn  0.05655327  0.19894567  0.18135682     1.49720
Zn163      Zn  0.09399033  0.30095617  0.18614135     1.49360
Zn164      Zn  0.12145258  0.25989250  0.15282939     1.49110
Zn165      Zn  0.02685826  0.24867705  0.15176552     1.49480
O166        O  0.07361700  0.25285809  0.16819652    -1.84040
O167        O  0.04383120  0.20350515  0.20806511    -0.74670
O168        O  0.16249463  0.33127359  0.18901441    -0.74490
O169        O  0.12032663  0.20129208  0.14847889    -0.74010
O170        O  0.06401424  0.27518699  0.21125148    -0.74690
O171        O  0.09893192  0.17537696  0.17708378    -0.74290
O172        O  0.17777520  0.29814994  0.16583535    -0.74870
O173        O  0.04962665  0.26560598  0.12504519    -0.74260
O174        O  0.07367594  0.34373453  0.17692924    -0.75020
O175        O  0.12241072  0.29145770  0.12962460    -0.74410
O176        O  0.01540929  0.29851534  0.15870355    -0.74870
O177        O  0.96993202  0.18633658  0.15394294    -0.74780
O178        O  0.99748830  0.15322799  0.17207711    -0.74570
C179        C  0.04577052  0.23524345  0.21776165     0.77220
C180        C  0.19007311  0.32437745  0.17963668     0.77710
C181        C  0.11550349  0.17392906  0.16144817     0.76670
C182        C  0.09055368  0.28843778  0.11956631     0.77040
C183        C  0.03950397  0.33581679  0.16702546     0.78180
C184        C  0.96555224  0.15186992  0.16263364     0.77230
Zn185      Zn  0.58409139  0.81020522  0.01741990     1.49720
Zn186      Zn  0.56829333  0.71392200  0.02149360     1.49360
Zn187      Zn  0.51998238  0.74075578  0.98970045     1.49110
Zn188      Zn  0.62356536  0.77475479  0.98588648     1.49480
O189        O  0.57430409  0.75898426  0.00345654    -1.84040
O190        O  0.61088266  0.81282705  0.04203459    -0.74670
O191        O  0.50221590  0.66076112  0.02273644    -0.74490
O192        O  0.49439249  0.78337314  0.99376998    -0.74010
O193        O  0.59013768  0.74140589  0.04679700    -0.74690
O194        O  0.52843647  0.81426878  0.02040277    -0.74290
O195        O  0.47354445  0.68330906  0.00034731    -0.74870
O196        O  0.59823842  0.74344853  0.96093335    -0.74260
O197        O  0.61655866  0.69822391  0.01626626    -0.75020
O198        O  0.52643314  0.72417908  0.96328333    -0.74410
O199        O  0.66297963  0.75135625  0.99673869    -0.74870
O200        O  0.65930731  0.84355419  0.98196111    -0.74780
O201        O  0.62739590  0.86415759  0.00386762    -0.74570
C202        C  0.61021608  0.78218159  0.05209679     0.77220
C203        C  0.46858623  0.65544715  0.01299175     0.77710
C204        C  0.49796530  0.80587735  0.00844935     0.76670
C205        C  0.55854938  0.72475688  0.95404784     0.77040
C206        C  0.65489165  0.71972941  0.00821528     0.78180
C207        C  0.65495937  0.87364941  0.99055058     0.77230
Zn208      Zn  0.70173458  0.81151936  0.18622816     1.49720
Zn209      Zn  0.74290440  0.88524870  0.15391900     1.49360
Zn210      Zn  0.80759659  0.87546891  0.18066881     1.49110
Zn211      Zn  0.75249741  0.80072594  0.15052619     1.49480
O212        O  0.75072028  0.84235430  0.16808149    -1.84040
O213        O  0.66895456  0.84816955  0.19023654    -0.74670
O214        O  0.79795926  0.94624620  0.15304714    -0.74490
O215        O  0.80279415  0.85387902  0.20710447    -0.74010
O216        O  0.70038703  0.89681867  0.16693959    -0.74690
O217        O  0.72896490  0.80636203  0.21062275    -0.74290
O218        O  0.83395417  0.94261909  0.17788389    -0.74870
O219        O  0.81566640  0.80859943  0.14800443    -0.74260
O220        O  0.71645461  0.86246650  0.12902166    -0.75020
O221        O  0.85209393  0.86336681  0.16855818    -0.74410
O222        O  0.72885591  0.80533103  0.12569337    -0.74870
O223        O  0.70535542  0.73893121  0.15752144    -0.74780
O224        O  0.66039681  0.74661171  0.17755614    -0.74570
C225        C  0.67448506  0.88232744  0.18088359     0.77220
C226        C  0.82895882  0.96548218  0.16508688     0.77710
C227        C  0.76942611  0.82492007  0.21665400     0.76670
C228        C  0.85182107  0.83689726  0.15627589     0.77040
C229        C  0.71305175  0.82952731  0.11980605     0.78180
C230        C  0.66880962  0.72211804  0.16681999     0.77230
Zn231      Zn  0.22695792  0.80053166  0.98254339     1.49720
Zn232      Zn  0.26059161  0.81017594  0.02450346     1.49360
Zn233      Zn  0.30788288  0.89308299  0.99670906     1.49110
Zn234      Zn  0.21053995  0.85960282  0.00991662     1.49480
O235        O  0.25190340  0.84027401  0.00336390    -1.84040
O236        O  0.21686070  0.74007575  0.99011407    -0.74670
O237        O  0.32598293  0.82621216  0.02455705    -0.74490
O238        O  0.31625895  0.89609897  0.96867173    -0.74010
O239        O  0.22608414  0.74300195  0.02053586    -0.74690
O240        O  0.26836066  0.82653680  0.95996895    -0.74290
O241        O  0.36034107  0.88720938  0.00699844    -0.74870
O242        O  0.23193551  0.92262592  0.00241693    -0.74260
O243        O  0.24064220  0.82672178  0.04876924    -0.75020
O244        O  0.30574577  0.94839509  0.00549120    -0.74410
O245        O  0.20684915  0.86184116  0.03696850    -0.74870
O246        O  0.14859908  0.81619529  0.00118838    -0.74780
O247        O  0.16239969  0.78501136  0.97706602    -0.74570
C248        C  0.21351849  0.72049908  0.00554458     0.77220
C249        C  0.36171022  0.85686265  0.01676025     0.77710
C250        C  0.30078294  0.86597869  0.95613979     0.76670
C251        C  0.27194777  0.95472252  0.00518048     0.77040
C252        C  0.21903525  0.84785841  0.05083795     0.78180
C253        C  0.13476774  0.78879676  0.98771920     0.77230
Zn254      Zn  0.20209945  0.98793954  0.17511499     1.49720
Zn255      Zn  0.10849520  0.90100605  0.18517837     1.49360
Zn256      Zn  0.13126651  0.93862505  0.14419132     1.49110
Zn257      Zn  0.18455816  0.89598931  0.16288162     1.49480
O258        O  0.15555303  0.93049273  0.16695250    -1.84040
O259        O  0.19784902  0.99101045  0.20275427    -0.74670
O260        O  0.05043928  0.89499154  0.17492751    -0.74490
O261        O  0.13928638  0.00104973  0.14403032    -0.74010
O262        O  0.13002199  0.93394591  0.21033985    -0.74690
O263        O  0.19157281  0.03696766  0.16567807    -0.74290
O264        O  0.06393938  0.89768210  0.14451091    -0.74870
O265        O  0.18878475  0.88804909  0.13559337    -0.74260
O266        O  0.09220473  0.83594007  0.18680867    -0.75020
O267        O  0.15827182  0.92444537  0.12182385    -0.74410
O268        O  0.14982574  0.83498176  0.17347607    -0.74870
O269        O  0.24722017  0.92605608  0.17242220    -0.74780
O270        O  0.26263791  0.99577048  0.16779892    -0.74570
C271        C  0.16735148  0.96897237  0.21483845     0.77220
C272        C  0.03678044  0.88830099  0.15809421     0.77710
C273        C  0.16289717  0.03551514  0.15406856     0.76670
C274        C  0.17841356  0.90167841  0.12098095     0.77040
C275        C  0.11129370  0.81454633  0.18108720     0.78180
C276        C  0.27577918  0.96723477  0.16984300     0.77230
Zn277      Zn  0.44713339  0.92446717  0.31988439     1.49720
Zn278      Zn  0.53338043  0.91543202  0.32140138     1.49360
Zn279      Zn  0.51657606  0.96966302  0.35355096     1.49110
Zn280      Zn  0.45167714  0.86652718  0.35016511     1.49480
O281        O  0.48842858  0.91983923  0.33620148    -1.84040
O282        O  0.47485004  0.94701085  0.29503909    -0.74670
O283        O  0.59485184  0.96401896  0.32960971    -0.74490
O284        O  0.48050802  0.00260177  0.35439324    -0.74010
O285        O  0.53173236  0.93337917  0.29453428    -0.74690
O286        O  0.43577644  0.97032434  0.32999343    -0.74290
O287        O  0.58041577  0.01186391  0.34489917    -0.74870
O288        O  0.47243074  0.87289021  0.37660261    -0.74260
O289        O  0.52519122  0.85216795  0.32372134    -0.75020
O290        O  0.52247741  0.94593214  0.37889405    -0.74410
O291        O  0.46206289  0.81909426  0.34051115    -0.74870
O292        O  0.38499638  0.84330697  0.34724148    -0.74780
O293        O  0.38622265  0.86760290  0.31856362    -0.74570
C294        C  0.50843984  0.94849604  0.28683150     0.77220
C295        C  0.60778899  0.00247999  0.33680316     0.77710
C296        C  0.44975982  0.99847059  0.34315466     0.76670
C297        C  0.50281383  0.90610969  0.38557864     0.77040
C298        C  0.49315064  0.81738118  0.33161609     0.78180
C299        C  0.36495126  0.84156100  0.33209539     0.77230
Zn300      Zn  0.54735243  0.03366547  0.17636522     1.49720
Zn301      Zn  0.63960116  0.10425283  0.16247392     1.49360
Zn302      Zn  0.55750761  0.11628609  0.15290179     1.49110
Zn303      Zn  0.59253885  0.13084445  0.19349152     1.49480
O304        O  0.58399241  0.09637812  0.17125636    -1.84040
O305        O  0.57587635  0.99800173  0.16849671    -0.74670
O306        O  0.64091315  0.10521646  0.13459835    -0.74490
O307        O  0.49063258  0.07060353  0.15291030    -0.74010
O308        O  0.64601897  0.05207039  0.17269908    -0.74690
O309        O  0.48394239  0.01131178  0.16846453    -0.74290
O310        O  0.58876988  0.12372602  0.12768620    -0.74870
O311        O  0.55263295  0.15885367  0.19164105    -0.74260
O312        O  0.68708020  0.16764348  0.16931399    -0.75020
O313        O  0.55947273  0.17378119  0.16160180    -0.74410
O314        O  0.65662953  0.18369621  0.19310304    -0.74870
O315        O  0.57616719  0.09109760  0.21682435    -0.74780
O316        O  0.54273919  0.02407698  0.20337519    -0.74570
C317        C  0.61635065  0.01017476  0.17297402     0.77220
C318        C  0.62096542  0.11706232  0.12285250     0.77710
C319        C  0.46655363  0.03207606  0.16048729     0.76670
C320        C  0.54739325  0.17890462  0.17775437     0.77040
C321        C  0.68828678  0.19558484  0.18121687     0.78180
C322        C  0.55488054  0.04815188  0.21783027     0.77230
Zn323      Zn  0.09759431  0.56604072  0.35282240     1.49720
Zn324      Zn  0.01737379  0.55795565  0.32817745     1.49360
Zn325      Zn  0.08749189  0.65112551  0.34351646     1.49110
Zn326      Zn  0.11653037  0.60605713  0.31241405     1.49480
O327        O  0.08003607  0.59524897  0.33437611    -1.84040
O328        O  0.05012168  0.50017348  0.35294209    -0.74670
O329        O  0.98034698  0.58561276  0.33439021    -0.74490
O330        O  0.09203460  0.65233137  0.37124506    -0.74010
O331        O  0.99228992  0.49499563  0.33666843    -0.74690
O332        O  0.10683867  0.59770343  0.37817446    -0.74290
O333        O  0.03388932  0.65759783  0.33590163    -0.74870
O334        O  0.16907272  0.66961132  0.31390471    -0.74260
O335        O  0.01051349  0.55207854  0.30114403    -0.75020
O336        O  0.14839800  0.70230955  0.33539805    -0.74410
O337        O  0.07891537  0.59156565  0.28869274    -0.74870
O338        O  0.14566335  0.56756349  0.31339803    -0.74780
O339        O  0.15251590  0.56257492  0.34388286    -0.74570
C340        C  0.01186045  0.47705531  0.34509339     0.77220
C341        C  0.99251089  0.62716753  0.33397451     0.77710
C342        C  0.10250019  0.63126735  0.38296463     0.76670
C343        C  0.17778444  0.70283672  0.32438482     0.77040
C344        C  0.03605673  0.56739969  0.28710184     0.78180
C345        C  0.16213528  0.55751800  0.32723883     0.77230
Zn346      Zn  0.96706438  0.53189301  0.17641998     1.49720
Zn347      Zn  0.89158369  0.46403764  0.14897358     1.49360
Zn348      Zn  0.86657461  0.47311841  0.19034443     1.49110
Zn349      Zn  0.89601438  0.55409446  0.16289293     1.49480
O350        O  0.90481391  0.50499687  0.16945791    -1.84040
O351        O  0.99490787  0.49713066  0.16728939    -0.74670
O352        O  0.83605875  0.40300459  0.15519397    -0.74490
O353        O  0.90159461  0.49099805  0.21465668    -0.74010
O354        O  0.94133004  0.44821579  0.14831304    -0.74690
O355        O  0.97149036  0.52990577  0.20352842    -0.74290
O356        O  0.83774247  0.40668736  0.18609796    -0.74870
O357        O  0.83410088  0.54016970  0.17078011    -0.74260
O358        O  0.88332079  0.49254713  0.12492309    -0.75020
O359        O  0.81326672  0.48285307  0.19040757    -0.74410
O360        O  0.89402200  0.55820376  0.13535622    -0.74870
O361        O  0.94676289  0.61294796  0.17261576    -0.74780
O362        O  0.00229903  0.59716781  0.17096610    -0.74570
C363        C  0.97817147  0.46217452  0.15726844     0.77220
C364        C  0.82314626  0.38433975  0.17112150     0.77710
C365        C  0.94428097  0.51367683  0.21704661     0.76670
C366        C  0.80458780  0.50895998  0.18096600     0.77040
C367        C  0.88571037  0.53060636  0.12218001     0.78180
C368        C  0.98864864  0.62515990  0.17304388     0.77230
Zn369      Zn  0.42076789  0.47975492  0.35175998     1.49720
Zn370      Zn  0.45258739  0.55193996  0.31955664     1.49360
Zn371      Zn  0.35667461  0.46557828  0.31744226     1.49110
Zn372      Zn  0.37826286  0.54172709  0.34706602     1.49480
O373        O  0.40178105  0.50972311  0.33410312    -1.84040
O374        O  0.49013619  0.51631806  0.35573383    -0.74670
O375        O  0.45477184  0.52721546  0.29490046    -0.74490
O376        O  0.33637112  0.40379729  0.32771211    -0.74010
O377        O  0.50795335  0.56340848  0.33188104    -0.74690
O378        O  0.40171087  0.41910585  0.34008865    -0.74290
O379        O  0.38738681  0.46524175  0.29307744    -0.74870
O380        O  0.32071118  0.52910374  0.33554339    -0.74260
O381        O  0.45955395  0.61339996  0.31890959    -0.75020
O382        O  0.30307352  0.47687060  0.31386340    -0.74410
O383        O  0.41929059  0.60822262  0.34379095    -0.74870
O384        O  0.36356826  0.52093049  0.37373318    -0.74780
O385        O  0.38711538  0.47138312  0.37655667    -0.74570
C386        C  0.51926549  0.54908687  0.34588309     0.77220
C387        C  0.42693297  0.49125720  0.28662798     0.77710
C388        C  0.36465198  0.39154933  0.33214077     0.76670
C389        C  0.29480789  0.50405445  0.32280613     0.77040
C390        C  0.44771874  0.63185598  0.33124556     0.78180
C391        C  0.36665842  0.49099102  0.38306303     0.77230
Zn392      Zn  0.44484852  0.35720305  0.16344084     1.49720
Zn393      Zn  0.47269596  0.45219715  0.17834451     1.49360
Zn394      Zn  0.52455359  0.40483308  0.19270650     1.49110
Zn395      Zn  0.53692884  0.44203489  0.15061603     1.49480
O396        O  0.49525830  0.41374746  0.17115180    -1.84040
O397        O  0.38679415  0.35446229  0.17127677    -0.74670
O398        O  0.47265741  0.45672438  0.20519930    -0.74490
O399        O  0.51107275  0.34041375  0.19217880    -0.74010
O400        O  0.40747668  0.42651133  0.17333425    -0.74690
O401        O  0.45197270  0.30589708  0.17352285    -0.74290
O402        O  0.50742594  0.42341982  0.21746045    -0.74870
O403        O  0.59809039  0.45208742  0.15850519    -0.74260
O404        O  0.51347448  0.51511465  0.16982313    -0.75020
O405        O  0.59176833  0.44053044  0.18903314    -0.74410
O406        O  0.54982948  0.50584530  0.14642454    -0.74870
O407        O  0.51367748  0.40433423  0.12684118    -0.74780
O408        O  0.44506978  0.35056107  0.13565583    -0.74570
C409        C  0.37699201  0.38528180  0.17397285     0.77220
C410        C  0.48660815  0.44539959  0.21927833     0.77710
C411        C  0.48230693  0.30524611  0.18355749     0.76670
C412        C  0.61566425  0.45374452  0.17432440     0.77040
C413        C  0.54301394  0.53141423  0.15704191     0.78180
C414        C  0.47543592  0.36970051  0.12325425     0.77230
Zn415      Zn  0.19305602  0.41771782  0.51788665     1.49720
Zn416      Zn  0.23035236  0.38149411  0.48657547     1.49360
Zn417      Zn  0.25819058  0.48223498  0.48978203     1.49110
Zn418      Zn  0.28947518  0.43779447  0.52191352     1.49480
O419        O  0.24417014  0.42974326  0.50380225    -1.84040
O420        O  0.13996001  0.37642739  0.50379599    -0.74670
O421        O  0.26496347  0.40798633  0.46262565    -0.74490
O422        O  0.21475447  0.50538493  0.49474522    -0.74010
O423        O  0.16222562  0.34701423  0.48147792    -0.74690
O424        O  0.18836774  0.47304246  0.52221219    -0.74290
O425        O  0.27074904  0.47551921  0.46257751    -0.74870
O426        O  0.34694193  0.49973809  0.51742799    -0.74260
O427        O  0.25140564  0.34127114  0.49788186    -0.75020
O428        O  0.31725359  0.52965513  0.49879829    -0.74410
O429        O  0.29965203  0.38525680  0.51931898    -0.74870
O430        O  0.26459153  0.42652051  0.54863588    -0.74780
O431        O  0.19229394  0.38708526  0.54127902    -0.74570
C432        C  0.13149548  0.35053050  0.49005613     0.77220
C433        C  0.27685019  0.44563321  0.45478879     0.77710
C434        C  0.19440181  0.50239468  0.50999564     0.76670
C435        C  0.35052161  0.53295773  0.50790892     0.77040
C436        C  0.28007125  0.34807598  0.51060174     0.78180
C437        C  0.22390747  0.39720248  0.55283315     0.77230
Zn438      Zn  0.11295411  0.26172824  0.65442074     1.49720
Zn439      Zn  0.19432911  0.24718341  0.65186283     1.49360
Zn440      Zn  0.18750802  0.30475506  0.68615597     1.49110
Zn441      Zn  0.11757464  0.20299422  0.68330066     1.49480
O442        O  0.15518873  0.25513580  0.66911472    -1.84040
O443        O  0.14105050  0.29053951  0.63046969    -0.74670
O444        O  0.25849811  0.29557826  0.65726606    -0.74490
O445        O  0.15268500  0.33891311  0.68887443    -0.74010
O446        O  0.18636482  0.26354499  0.62525521    -0.74690
O447        O  0.10047439  0.30397995  0.66700691    -0.74290
O448        O  0.25058336  0.34392450  0.67545476    -0.74870
O449        O  0.13830653  0.20858704  0.70974531    -0.74260
O450        O  0.18418205  0.18281214  0.65420967    -0.75020
O451        O  0.19286052  0.27997764  0.71159934    -0.74410
O452        O  0.12445653  0.15401604  0.67287290    -0.74870
O453        O  0.05165237  0.18330478  0.68135582    -0.74780
O454        O  0.05233894  0.20405114  0.65220349    -0.74570
C455        C  0.16886438  0.28694358  0.62002112     0.77220
C456        C  0.27457284  0.33382323  0.66513244     0.77710
C457        C  0.11759651  0.33239999  0.67996857     0.76670
C458        C  0.17007276  0.24064974  0.71873612     0.77040
C459        C  0.15259883  0.14941699  0.66301086     0.78180
C460        C  0.03113244  0.17962421  0.66616300     0.77230
Zn461      Zn  0.14046139  0.77633191  0.48573942     1.49720
Zn462      Zn  0.12374678  0.71071264  0.51973903     1.49360
Zn463      Zn  0.20173142  0.73202234  0.49110978     1.49110
Zn464      Zn  0.21281200  0.80638415  0.51782730     1.49480
O465        O  0.16950116  0.75630093  0.50350156    -1.84040
O466        O  0.07918898  0.76006109  0.49718699    -0.74670
O467        O  0.12922077  0.65408679  0.52175834    -0.74490
O468        O  0.17869309  0.71534362  0.46507978    -0.74010
O469        O  0.06170803  0.69641714  0.51153168    -0.74690
O470        O  0.13287604  0.74279137  0.46099586    -0.74290
O471        O  0.18751821  0.67389839  0.50276628    -0.74870
O472        O  0.27194969  0.80710927  0.52002122    -0.74260
O473        O  0.12751356  0.73768410  0.54491328    -0.75020
O474        O  0.26960708  0.77228061  0.49372322    -0.74410
O475        O  0.18615499  0.80727467  0.54235059    -0.74870
O476        O  0.22684874  0.86324509  0.50531455    -0.74780
O477        O  0.17803446  0.84530307  0.48204630    -0.74570
C478        C  0.05096343  0.72529173  0.50633440     0.77220
C479        C  0.15804662  0.64619764  0.51399910     0.77710
C480        C  0.15055765  0.71993881  0.45509264     0.76670
C481        C  0.29114346  0.79553812  0.50784260     0.77040
C482        C  0.15202186  0.77733526  0.55116054     0.78180
C483        C  0.21120330  0.87446022  0.49164991     0.77230
Zn484      Zn  0.09761441  0.88584568  0.68662993     1.49720
Zn485      Zn  0.06353421  0.87071599  0.64433259     1.49360
Zn486      Zn  0.11272411  0.82290870  0.66101277     1.49110
Zn487      Zn  0.01379611  0.79418038  0.67364659     1.49480
O488        O  0.07183144  0.84382372  0.66665234    -1.84040
O489        O  0.10083421  0.94274108  0.67807737    -0.74670
O490        O  0.07989705  0.84727420  0.62117456    -0.74490
O491        O  0.17410894  0.85936797  0.67188604    -0.74010
O492        O  0.09756198  0.93888492  0.64733614    -0.74690
O493        O  0.16428210  0.90678083  0.68942686    -0.74290
O494        O  0.12531982  0.82741020  0.63438524    -0.74870
O495        O  0.01017575  0.73566544  0.66467884    -0.74260
O496        O  0.99948953  0.85722934  0.64271137    -0.75020
O497        O  0.08342320  0.75718178  0.66486090    -0.74410
O498        O  0.96481329  0.80820719  0.66531452    -0.74870
O499        O  0.00701761  0.79193417  0.70130822    -0.74780
O500        O  0.06018682  0.85993859  0.71063175    -0.74570
C501        C  0.10471819  0.96131457  0.66230854     0.77220
C502        C  0.10693181  0.83194388  0.62000051     0.77710
C503        C  0.18992519  0.89469057  0.68165385     0.76670
C504        C  0.04219052  0.72664804  0.66329989     0.77040
C505        C  0.96553243  0.83595011  0.65330600     0.78180
C506        C  0.02550835  0.82137238  0.71397687     0.77230
Zn507      Zn  0.64079656  0.86642700  0.50802294     1.49720
Zn508      Zn  0.56707700  0.88511195  0.49629331     1.49360
Zn509      Zn  0.56615276  0.79765990  0.48176927     1.49110
Zn510      Zn  0.54208437  0.80586056  0.52405242     1.49480
O511        O  0.57794337  0.83742870  0.50242176    -1.84040
O512        O  0.67493747  0.93066754  0.50027503    -0.74670
O513        O  0.56243947  0.88886830  0.46888674    -0.74490
O514        O  0.61624351  0.78258919  0.47925016    -0.74010
O515        O  0.61851288  0.94363908  0.50581645    -0.74690
O516        O  0.66607642  0.82841798  0.50005792    -0.74290
O517        O  0.55198455  0.82340610  0.45833421    -0.74870
O518        O  0.51147641  0.73885982  0.51977315    -0.74260
O519        O  0.50521526  0.87010159  0.50512566    -0.75020
O520        O  0.51471582  0.73694911  0.48906920    -0.74410
O521        O  0.48891806  0.81627608  0.52592001    -0.74870
O522        O  0.58123660  0.82519103  0.54742958    -0.74780
O523        O  0.64853728  0.87033639  0.53502491    -0.74570
C524        C  0.66067829  0.95737628  0.50439469     0.77220
C525        C  0.55268897  0.86072360  0.45580923     0.77710
C526        C  0.65095525  0.79457162  0.48939168     0.76670
C527        C  0.49925289  0.71709104  0.50457059     0.77040
C528        C  0.47755808  0.84020774  0.51630052     0.78180
C529        C  0.62367791  0.85232490  0.54907280     0.77230
Zn530      Zn  0.76848388  0.90161797  0.68768646     1.49720
Zn531      Zn  0.75314873  0.98341722  0.67771724     1.49360
Zn532      Zn  0.78772891  0.94305348  0.64705965     1.49110
Zn533      Zn  0.68912574  0.88978119  0.66121620     1.49480
O534        O  0.74992389  0.92922380  0.66869468    -1.84040
O535        O  0.78664922  0.94155690  0.71129213    -0.74670
O536        O  0.81311211  0.03720759  0.67010757    -0.74490
O537        O  0.81773131  0.90526684  0.64726767    -0.74010
O538        O  0.75696812  0.98502296  0.70556202    -0.74690
O539        O  0.81966874  0.89329211  0.67759050    -0.74290
O540        O  0.83856962  0.00668360  0.64962327    -0.74870
O541        O  0.68466659  0.88086812  0.63416478    -0.74260
O542        O  0.69864876  0.98706086  0.66880728    -0.75020
O543        O  0.75171980  0.93189392  0.62322011    -0.74410
O544        O  0.64845278  0.91472177  0.66503131    -0.74870
O545        O  0.66647354  0.82985230  0.67188259    -0.74780
O546        O  0.71831669  0.83622917  0.69174720    -0.74570
C547        C  0.77751620  0.97187662  0.71640414     0.77220
C548        C  0.84439932  0.03940248  0.65980064     0.77710
C549        C  0.83157919  0.89176576  0.66092310     0.76670
C550        C  0.71024236  0.90257470  0.62071417     0.77040
C551        C  0.65861245  0.95571365  0.66501639     0.78180
C552        C  0.68112630  0.81198336  0.68321308     0.77230
Zn553      Zn  0.85748321  0.63712530  0.01720379     1.49720
Zn554      Zn  0.78076749  0.59135354  0.98678016     1.49360
Zn555      Zn  0.86163707  0.57844729  0.98246502     1.49110
Zn556      Zn  0.79032044  0.53376029  0.01539475     1.49480
O557        O  0.82479935  0.58608637  0.00077186    -1.84040
O558        O  0.82118117  0.67050149  0.02019627    -0.74670
O559        O  0.80775676  0.62284293  0.96299401    -0.74490
O560        O  0.92555247  0.62630564  0.98747997    -0.74010
O561        O  0.76547675  0.63089296  0.00021008    -0.74690
O562        O  0.92070185  0.67491754  0.00645612    -0.74290
O563        O  0.85311827  0.59655585  0.95652887    -0.74870
O564        O  0.79714798  0.48399981  0.00499928    -0.74260
O565        O  0.72234953  0.53170732  0.98447930    -0.75020
O566        O  0.85021360  0.51366310  0.98302768    -0.74410
O567        O  0.72435883  0.51443440  0.01392986    -0.74870
O568        O  0.81368509  0.54185693  0.04150461    -0.74780
O569        O  0.86542687  0.61462161  0.04250942    -0.74570
C570        C  0.78360658  0.66094238  0.01254043     0.77220
C571        C  0.83563340  0.62042129  0.95214366     0.77710
C572        C  0.94357978  0.66427175  0.99568813     0.76670
C573        C  0.82186760  0.48021901  0.99282311     0.77040
C574        C  0.70258034  0.50828618  0.99884651     0.78180
C575        C  0.84508479  0.57555013  0.04990562     0.77230
Zn576      Zn  0.91798181  0.81182738  0.82161824     1.49720
Zn577      Zn  0.88765519  0.71052589  0.81823610     1.49360
Zn578      Zn  0.95133758  0.76888448  0.85294395     1.49110
Zn579      Zn  0.85336792  0.74662643  0.85015121     1.49480
O580        O  0.90390701  0.75929458  0.83547055    -1.84040
O581        O  0.93076573  0.80545288  0.79464624    -0.74670
O582        O  0.91191464  0.67265468  0.82872335    -0.74490
O583        O  0.00755992  0.83182651  0.84892856    -0.74010
O584        O  0.91673470  0.73561354  0.79301973    -0.74690
O585        O  0.97630430  0.86058630  0.83071985    -0.74290
O586        O  0.96459208  0.71888343  0.84886141    -0.74870
O587        O  0.85558430  0.71881130  0.87380995    -0.74260
O588        O  0.81956756  0.67370337  0.81477417    -0.75020
O589        O  0.92855929  0.75726429  0.87984784    -0.74410
O590        O  0.79848907  0.70325852  0.83738318    -0.74870
O591        O  0.84873956  0.80183191  0.85402240    -0.74780
O592        O  0.87364230  0.83341897  0.82628507    -0.74570
C593        C  0.93154343  0.77415199  0.78551267     0.77220
C594        C  0.94403259  0.68183115  0.84005409     0.77710
C595        C  0.01001364  0.86500381  0.83981701     0.76670
C596        C  0.88816875  0.72935515  0.88487408     0.77040
C597        C  0.78923159  0.67663443  0.82385593     0.78180
C598        C  0.85445740  0.83097798  0.84176592     0.77230
Zn599      Zn  0.76434982  0.21830818  0.01946112     1.49720
Zn600      Zn  0.77651079  0.15135706  0.99390595     1.49360
Zn601      Zn  0.68033208  0.12280191  0.00818626     1.49110
Zn602      Zn  0.72791002  0.20204636  0.97877897     1.49480
O603        O  0.73698719  0.17367011  0.00026924    -1.84040
O604        O  0.83096941  0.23857109  0.02033932    -0.74670
O605        O  0.75037244  0.08650461  0.99881655    -0.74490
O606        O  0.67582998  0.12442302  0.03602384    -0.74010
O607        O  0.83891467  0.18905417  0.00330997    -0.74690
O608        O  0.73131397  0.19241042  0.04413655    -0.74290
O609        O  0.67711990  0.06412829  0.99987834    -0.74870
O610        O  0.66344769  0.18819478  0.97943050    -0.74260
O611        O  0.78408422  0.15389680  0.96701431    -0.75020
O612        O  0.62865496  0.13114937  0.99939816    -0.74410
O613        O  0.74515395  0.18339080  0.95477607    -0.74870
O614        O  0.76501043  0.26963921  0.98124517    -0.74780
O615        O  0.76547976  0.27612170  0.01188553    -0.74570
C616        C  0.85559208  0.22515483  0.01258658     0.77220
C617        C  0.70925611  0.05558072  0.99789019     0.77710
C618        C  0.69665737  0.15451016  0.04829863     0.76670
C619        C  0.62886677  0.16130101  0.98897718     0.77040
C620        C  0.76999869  0.16569881  0.95307529     0.78180
C621        C  0.77208238  0.29356404  0.99568359     0.77230
Zn622      Zn  0.87487778  0.06879241  0.82618740     1.49720
Zn623      Zn  0.80885688  0.10834335  0.81967203     1.49360
Zn624      Zn  0.79631855  0.04606496  0.85576709     1.49110
Zn625      Zn  0.87955296  0.14062222  0.85272756     1.49480
O626        O  0.83888152  0.09021839  0.83814455    -1.84040
O627        O  0.85866805  0.05652899  0.79890814    -0.74670
O628        O  0.74335085  0.08410339  0.82824710    -0.74490
O629        O  0.79951791  0.98844084  0.85600900    -0.74010
O630        O  0.80759635  0.07796500  0.79492543    -0.74690
O631        O  0.85789032  0.00871755  0.83690169    -0.74290
O632        O  0.73491208  0.03472073  0.84986017    -0.74870
O633        O  0.85192219  0.14285266  0.87641397    -0.74260
O634        O  0.84209142  0.17851330  0.81750173    -0.75020
O635        O  0.80229636  0.07112854  0.88163152    -0.74410
O636        O  0.89184363  0.19576549  0.84031564    -0.74870
O637        O  0.93934900  0.14527754  0.85665551    -0.74780
O638        O  0.94217945  0.10976074  0.83139060    -0.74570
C639        C  0.82916477  0.05900838  0.78893204     0.77220
C640        C  0.71869314  0.05422042  0.84020793     0.77710
C641        C  0.82770335  0.98037728  0.84779488     0.76670
C642        C  0.82203817  0.11217870  0.88653538     0.77040
C643        C  0.87476957  0.20750717  0.82743392     0.78180
C644        C  0.96124091  0.13500407  0.84538566     0.77230
Zn645      Zn  0.41987820  0.30134648  0.98525747     1.49720
Zn646      Zn  0.36160642  0.23558584  0.01953850     1.49360
Zn647      Zn  0.40314348  0.20382730  0.98686559     1.49110
Zn648      Zn  0.46414143  0.26780103  0.01582117     1.49480
O649        O  0.41127814  0.25282204  0.00195733    -1.84040
O650        O  0.36939095  0.31318313  0.98997700    -0.74670
O651        O  0.32406271  0.16633147  0.02114130    -0.74490
O652        O  0.37896621  0.20620703  0.96234385    -0.74010
O653        O  0.32319901  0.26164890  0.01016303    -0.74690
O654        O  0.40422955  0.27927932  0.95853059    -0.74290
O655        O  0.35684398  0.14893905  0.99842031    -0.74870
O656        O  0.48858321  0.22591253  0.01177810    -0.74260
O657        O  0.38715457  0.26357963  0.04501166    -0.75020
O658        O  0.45851493  0.19791271  0.98433703    -0.74410
O659        O  0.45842038  0.27995977  0.04257487    -0.74870
O660        O  0.51100061  0.32671824  0.00705898    -0.74780
O661        O  0.48333780  0.35824949  0.98868702    -0.74570
C662        C  0.33197395  0.29345466  0.99869650     0.77220
C663        C  0.32770933  0.13752162  0.01121695     0.77710
C664        C  0.38291287  0.23884112  0.95266971     0.76670
C665        C  0.48740467  0.20529790  0.99693629     0.77040
C666        C  0.42674756  0.27981134  0.05186421     0.78180
C667        C  0.51622111  0.36067456  0.99808715     0.77230
Zn668      Zn  0.20276436  0.14014532  0.85840942     1.49720
Zn669      Zn  0.23380490  0.22094746  0.83020795     1.49360
Zn670      Zn  0.30194712  0.19423174  0.84273342     1.49110
Zn671      Zn  0.22570280  0.12973737  0.81614736     1.49480
O672        O  0.23983914  0.17027518  0.83676770    -1.84040
O673        O  0.15319102  0.15596093  0.85937854    -0.74670
O674        O  0.29049867  0.27815024  0.83635267    -0.74490
O675        O  0.30935324  0.19986484  0.86951740    -0.74010
O676        O  0.17947030  0.21737176  0.84217335    -0.74690
O677        O  0.24184780  0.15780592  0.88218402    -0.74290
O678        O  0.34186829  0.25678090  0.83386771    -0.74870
O679        O  0.27474708  0.11376703  0.81245715    -0.74260
O680        O  0.22187374  0.22022741  0.80284389    -0.75020
O681        O  0.32179215  0.15147221  0.83539963    -0.74410
O682        O  0.21220675  0.15478702  0.79265279    -0.74870
O683        O  0.17262811  0.07028144  0.82364743    -0.74780
O684        O  0.16815057  0.07279291  0.85434978    -0.74570
C685        C  0.14820606  0.18694700  0.85197864     0.77220
C686        C  0.33141082  0.28729849  0.83522763     0.77710
C687        C  0.28468196  0.18322110  0.88370008     0.76670
C688        C  0.30743284  0.12101950  0.82312047     0.77040
C689        C  0.21254527  0.19173295  0.78993147     0.78180
C690        C  0.15583663  0.05105335  0.83913868     0.77230
Zn691      Zn  0.55305903  0.45805545  0.65117839     1.49720
Zn692      Zn  0.59193645  0.47767016  0.69236027     1.49360
Zn693      Zn  0.63946947  0.55192153  0.66148898     1.49110
Zn694      Zn  0.54577428  0.53071688  0.67521576     1.49480
O695        O  0.58223239  0.50364708  0.66999940    -1.84040
O696        O  0.54815682  0.39921655  0.66001662    -0.74670
O697        O  0.65701712  0.49119363  0.69281449    -0.74490
O698        O  0.64424761  0.54848592  0.63396764    -0.74010
O699        O  0.55563649  0.40911927  0.69068412    -0.74690
O700        O  0.58754441  0.48039825  0.62639240    -0.74290
O701        O  0.68914041  0.54398427  0.67152746    -0.74870
O702        O  0.57720396  0.59643297  0.66950673    -0.74260
O703        O  0.57715974  0.50357044  0.71541197    -0.75020
O704        O  0.64859607  0.61245790  0.66879917    -0.74410
O705        O  0.53788971  0.53148208  0.70222448    -0.74870
O706        O  0.48304742  0.49586101  0.66527535    -0.74780
O707        O  0.48760082  0.44223255  0.64979930    -0.74570
C708        C  0.54558443  0.38382442  0.67641808     0.77220
C709        C  0.69165372  0.51779780  0.68326986     0.77710
C710        C  0.62298305  0.51756678  0.62211238     0.76670
C711        C  0.61931365  0.62472642  0.67047527     0.77040
C712        C  0.55416921  0.52355575  0.71656417     0.78180
C713        C  0.46466501  0.45866512  0.65669087     0.77230
Zn714      Zn  0.51788861  0.57115817  0.85090954     1.49720
Zn715      Zn  0.46312869  0.61957460  0.84700123     1.49360
Zn716      Zn  0.54145497  0.64352010  0.81862711     1.49110
Zn717      Zn  0.45014989  0.55615827  0.81714711     1.49480
O718        O  0.49434837  0.59757329  0.83363616    -1.84040
O719        O  0.52410447  0.59973573  0.87743217    -0.74670
O720        O  0.47226626  0.67397447  0.83414112    -0.74490
O721        O  0.60065554  0.65720910  0.82948207    -0.74010
O722        O  0.48916697  0.63810693  0.87208017    -0.74690
O723        O  0.57875774  0.58873153  0.83982887    -0.74290
O724        O  0.53192765  0.69726175  0.81550183    -0.74870
O725        O  0.47399395  0.55752750  0.79180254    -0.74260
O726        O  0.39637859  0.57494896  0.84744366    -0.75020
O727        O  0.54254997  0.61758148  0.79366193    -0.74410
O728        O  0.39086529  0.55414651  0.81802739    -0.74870
O729        O  0.43669380  0.49855040  0.82609080    -0.74780
O730        O  0.47965358  0.50143456  0.84930497    -0.74570
C731        C  0.51166061  0.62748042  0.88286763     0.77220
C732        C  0.50024886  0.70192531  0.82250513     0.77710
C733        C  0.60852536  0.62510736  0.83217017     0.76670
C734        C  0.51327675  0.58260595  0.78519602     0.77040
C735        C  0.37282716  0.55727669  0.83294999     0.78180
C736        C  0.44877744  0.47872398  0.83740083     0.77230
Zn737      Zn  0.43249656  0.96597793  0.85086359     1.49720
Zn738      Zn  0.46487923  0.92781391  0.81793105     1.49360
Zn739      Zn  0.39098690  0.86109754  0.84528193     1.49110
Zn740      Zn  0.36978030  0.91627725  0.81501384     1.49480
O741        O  0.41385240  0.91796865  0.83252138    -1.84040
O742        O  0.50197874  0.00050153  0.85391494    -0.74670
O743        O  0.46773721  0.87186917  0.81472309    -0.74490
O744        O  0.38148831  0.86622817  0.87282002    -0.74010
O745        O  0.52008970  0.96924828  0.83095328    -0.74690
O746        O  0.40234536  0.93842201  0.87560400    -0.74290
O747        O  0.42962410  0.83313607  0.83973009    -0.74870
O748        O  0.31301822  0.85384255  0.81357790    -0.74260
O749        O  0.46798460  0.95635871  0.79358696    -0.75020
O750        O  0.32989021  0.81791574  0.83508972    -0.74410
O751        O  0.39678253  0.93925704  0.78960194    -0.74870
O752        O  0.35567314  0.96332889  0.82256054    -0.74780
O753        O  0.40824262  0.00667667  0.84305573    -0.74570
C754        C  0.53112457  0.99585629  0.84456649     0.77220
C755        C  0.45507359  0.83887818  0.82581590     0.77710
C756        C  0.38427607  0.89873031  0.88235566     0.76670
C757        C  0.30329269  0.81844229  0.82289093     0.77040
C758        C  0.43747653  0.95740781  0.78400004     0.78180
C759        C  0.37526084  0.99876003  0.83240171     0.77230
Zn760      Zn  0.46675721  0.04609279  0.65026740     1.49720
Zn761      Zn  0.53463491  0.14921097  0.65383896     1.49360
Zn762      Zn  0.46128974  0.09970422  0.68572063     1.49110
Zn763      Zn  0.54470645  0.08809810  0.68102542     1.49480
O764        O  0.50032825  0.09489988  0.66763045    -1.84040
O765        O  0.45694532  0.07234469  0.62599810    -0.74670
O766        O  0.52874694  0.19764723  0.66647440    -0.74490
O767        O  0.39719217  0.05475645  0.67921490    -0.74010
O768        O  0.50943622  0.14445087  0.62821159    -0.74690
O769        O  0.40461241  0.00545438  0.66152895    -0.74290
O770        O  0.47412986  0.16477876  0.68763872    -0.74870
O771        O  0.52296590  0.06159693  0.70612924    -0.74260
O772        O  0.60104190  0.16935947  0.65375312    -0.75020
O773        O  0.46723899  0.07592731  0.71060503    -0.74410
O774        O  0.60431284  0.14554545  0.68201748    -0.74870
O775        O  0.55502481  0.04520999  0.66753235    -0.74780
O776        O  0.50160908  0.01211457  0.64593390    -0.74570
C777        C  0.47684476  0.11246638  0.61949918     0.77220
C778        C  0.50370961  0.19980472  0.67898639     0.77710
C779        C  0.38072695  0.01623887  0.67155900     0.76670
C780        C  0.49112165  0.05918232  0.71601468     0.77040
C781        C  0.62321089  0.17199188  0.66835078     0.78180
C782        C  0.53677448  0.01734238  0.65443183     0.77230
Zn783      Zn  0.03301519  0.48541849  0.85114667     1.49720
Zn784      Zn  0.08558824  0.55508126  0.81860110     1.49360
Zn785      Zn  0.13419962  0.55125171  0.84951843     1.49110
Zn786      Zn  0.08735961  0.46861249  0.81921690     1.49480
O787        O  0.08383737  0.51194818  0.83485661    -1.84040
O788        O  0.00432968  0.52705548  0.85100779    -0.74670
O789        O  0.14537125  0.60898021  0.81363649    -0.74490
O790        O  0.12606013  0.53535058  0.87660650    -0.74010
O791        O  0.05222243  0.57750613  0.83117419    -0.74690
O792        O  0.05759840  0.47550673  0.87626884    -0.74290
O793        O  0.16065876  0.61855789  0.84353342    -0.74870
O794        O  0.15459011  0.48365560  0.81971903    -0.74260
O795        O  0.05350134  0.52913385  0.79519933    -0.75020
O796        O  0.17919632  0.53666516  0.84139868    -0.74410
O797        O  0.06292620  0.47029063  0.79347988    -0.74870
O798        O  0.03823566  0.40586207  0.82731112    -0.74780
O799        O  0.99013395  0.42395447  0.84020632    -0.74570
C800        C  0.01864790  0.56378750  0.84177441     0.77220
C801        C  0.16653440  0.63461569  0.82708552     0.77710
C802        C  0.09610024  0.49902302  0.88415614     0.76670
C803        C  0.18641258  0.51309125  0.82995760     0.77040
C804        C  0.04727332  0.49418073  0.78682509     0.78180
C805        C  0.99824312  0.39522223  0.83252792     0.77230
Zn806      Zn  0.95713301  0.44494339  0.65178862     1.49720
Zn807      Zn  0.85538922  0.41092252  0.65532300     1.49360
Zn808      Zn  0.90189880  0.38057785  0.68655687     1.49110
Zn809      Zn  0.91798382  0.47688635  0.68464214     1.49480
O810        O  0.90846097  0.42752269  0.66950137    -1.84040
O811        O  0.93218162  0.41422970  0.62687165    -0.74670
O812        O  0.81056267  0.35157788  0.66409909    -0.74490
O813        O  0.95016467  0.36616353  0.68015455    -0.74010
O814        O  0.86129852  0.39908073  0.62833795    -0.74690
O815        O  0.99732181  0.42252295  0.66212913    -0.74290
O816        O  0.83684208  0.32604941  0.68622364    -0.74870
O817        O  0.94604545  0.47721213  0.70906803    -0.74260
O818        O  0.82844743  0.45073148  0.66089369    -0.75020
O819        O  0.92194014  0.40448409  0.71271119    -0.74410
O820        O  0.86104107  0.47905087  0.68809092    -0.74870
O821        O  0.95992197  0.53221765  0.67139983    -0.74780
O822        O  0.99068040  0.51359311  0.64828483    -0.74570
C823        C  0.89314458  0.39818766  0.61955973     0.77220
C824        C  0.80456357  0.32158630  0.67582763     0.77710
C825        C  0.98898582  0.38937674  0.67270964     0.76670
C826        C  0.94322692  0.44479277  0.71865003     0.77040
C827        C  0.83101051  0.47139142  0.67596329     0.78180
C828        C  0.98628375  0.54278450  0.65756896     0.77230
C829        C  0.03014244  0.45975723  0.75490698    -0.01760
C830        C  0.01991992  0.48057850  0.76948016     0.07920
C831        C  0.98261786  0.48777746  0.76746956    -0.01880
C832        C  0.95773546  0.47634673  0.75081795    -0.01880
C833        C  0.96757958  0.45482201  0.73654552     0.08050
C834        C  0.00340322  0.44605052  0.73878524    -0.02080
Br835      Br  0.01807408  0.41765556  0.71924460    -0.00620
Br836      Br  0.08257928  0.45242636  0.75612132    -0.00700
Br837      Br  0.90939153  0.48945503  0.74759996    -0.00660
Br838      Br  0.96251257  0.51037862  0.78767567    -0.00640
C839        C  0.70512511  0.20100268  0.67607032    -0.01760
C840        C  0.67035129  0.20894053  0.67011789     0.07920
C841        C  0.67969982  0.25335138  0.66737507    -0.01880
C842        C  0.72185136  0.28937684  0.67228546    -0.01880
C843        C  0.75809465  0.28212787  0.67668919     0.08050
C844        C  0.74944115  0.23752553  0.67869298    -0.02080
Br845      Br  0.79784340  0.22581692  0.68407804    -0.00620
Br846      Br  0.69294411  0.14000675  0.67888619    -0.00700
Br847      Br  0.72814834  0.34858287  0.67386303    -0.00660
Br848      Br  0.63592023  0.26616405  0.65615701    -0.00640
C849        C  0.46321091  0.02872827  0.76666711    -0.01760
C850        C  0.45058115  0.98290324  0.76654670     0.07920
C851        C  0.45342947  0.96271203  0.75012588    -0.01880
C852        C  0.46835588  0.98822878  0.73369587    -0.01880
C853        C  0.47966430  0.03389019  0.73363288     0.08050
C854        C  0.47740691  0.05416227  0.75021127    -0.02080
Br855      Br  0.49605236  0.11729671  0.75057563    -0.00620
Br856      Br  0.46208836  0.05685298  0.78954706    -0.00700
Br857      Br  0.47191052  0.95980868  0.71128139    -0.00660
Br858      Br  0.43633914  0.89996933  0.75027860    -0.00640
C859        C  0.19346689  0.71551944  0.83443398    -0.01760
C860        C  0.19723587  0.68338812  0.82357275     0.07920
C861        C  0.22931748  0.69847378  0.80895249    -0.01880
C862        C  0.26096013  0.74469449  0.80702800    -0.01880
C863        C  0.26098741  0.77571438  0.81967061     0.08050
C864        C  0.22513382  0.76162431  0.83231563    -0.02080
Br865      Br  0.21880903  0.80620116  0.84597159    -0.00620
Br866      Br  0.14402176  0.69680516  0.85168829    -0.00700
Br867      Br  0.30445312  0.76629652  0.78707017    -0.00660
Br868      Br  0.23233474  0.65650201  0.79209987    -0.00640
C869        C  0.31292439  0.57647046  0.83692130    -0.01760
C870        C  0.32467958  0.54375560  0.83295941     0.07920
C871        C  0.29102430  0.50008894  0.82764684    -0.01880
C872        C  0.24545642  0.48930818  0.82621795    -0.01880
C873        C  0.23405203  0.52311743  0.82906168     0.08050
C874        C  0.26893626  0.56740939  0.83362517    -0.02080
Br875      Br  0.25907874  0.61818297  0.83441502    -0.00620
Br876      Br  0.35679995  0.63413925  0.84727457    -0.00700
Br877      Br  0.19930155  0.42798184  0.82134525    -0.00660
Br878      Br  0.30688696  0.45409228  0.82407535    -0.00640
C879        C  0.44941502  0.72978087  0.81362620    -0.01760
C880        C  0.49379705  0.73983385  0.81755579     0.07920
C881        C  0.52732834  0.78449676  0.82136868    -0.01880
C882        C  0.51512437  0.81789336  0.82297406    -0.01880
C883        C  0.46915094  0.80572086  0.82207911     0.08050
C884        C  0.43639127  0.76164765  0.81718019    -0.02080
Br885      Br  0.37335091  0.74386351  0.81631453    -0.00620
Br886      Br  0.40671468  0.67202548  0.80326481    -0.00700
Br887      Br  0.56071713  0.87933898  0.82782582    -0.00660
Br888      Br  0.58887597  0.79929440  0.82568279    -0.00640
C889        C  0.48935769  0.30074320  0.67328112    -0.01760
C890        C  0.53224674  0.33576212  0.67898268     0.07920
C891        C  0.56312851  0.32470188  0.68696236    -0.01880
C892        C  0.55149266  0.27936062  0.68901564    -0.01880
C893        C  0.50946176  0.24468212  0.68263503     0.08050
C894        C  0.47760291  0.25537013  0.67563435    -0.02080
Br895      Br  0.41823839  0.20754337  0.66880144    -0.00620
Br896      Br  0.44748563  0.31414666  0.66105257    -0.00700
Br897      Br  0.59287369  0.26430378  0.70080431    -0.00660
Br898      Br  0.62363183  0.37156143  0.69283852    -0.00640
C899        C  0.76710765  0.53411611  0.66987652    -0.01760
C900        C  0.73395073  0.51482259  0.68419600     0.07920
C901        C  0.73876617  0.48727456  0.69769197    -0.01880
C902        C  0.77081750  0.47338684  0.69510658    -0.01880
C903        C  0.79904620  0.48766910  0.67935382     0.08050
C904        C  0.79834355  0.51937605  0.66723798    -0.02080
Br905      Br  0.84125720  0.54351694  0.64708566    -0.00620
Br906      Br  0.77300988  0.58239624  0.65396152    -0.00700
Br907      Br  0.77447518  0.43283261  0.71273942    -0.00660
Br908      Br  0.70428850  0.47052874  0.72050783    -0.00640
C909        C  0.54772961  0.58176388  0.73543729    -0.01760
C910        C  0.54657220  0.53976910  0.73459575     0.07920
C911        C  0.53602133  0.51319419  0.75081089    -0.01880
C912        C  0.52675644  0.52829145  0.76748283    -0.01880
C913        C  0.52585689  0.56888171  0.76791863     0.08050
C914        C  0.53704382  0.59589172  0.75200227    -0.02080
Br915      Br  0.53640134  0.65181829  0.75287101    -0.00620
Br916      Br  0.56462322  0.62159219  0.71427063    -0.00700
Br917      Br  0.51759501  0.49442697  0.79007990    -0.00660
Br918      Br  0.53069969  0.45456666  0.75016896    -0.00640
C919        C  0.29561892  0.04340179  0.82463995    -0.01760
C920        C  0.32579263  0.09019812  0.82306581     0.07920
C921        C  0.37259232  0.10727095  0.82530462    -0.01880
C922        C  0.38911556  0.07796233  0.82930164    -0.01880
C923        C  0.35879659  0.03110380  0.83080583     0.08050
C924        C  0.31190927  0.01428126  0.82896994    -0.02080
Br925      Br  0.26889469  0.95163115  0.83427687    -0.00620
Br926      Br  0.23115138  0.01818038  0.82204242    -0.00700
Br927      Br  0.45329732  0.10300157  0.83282672    -0.00660
Br928      Br  0.41440108  0.17091859  0.82221190    -0.00640
C929        C  0.36666267  0.36105248  0.81996157    -0.01760
C930        C  0.36679891  0.33460335  0.83467102     0.07920
C931        C  0.39865955  0.35380317  0.84904544    -0.01880
C932        C  0.42789054  0.40080428  0.84966360    -0.01880
C933        C  0.42502681  0.42859103  0.83574896     0.08050
C934        C  0.39643503  0.40748140  0.82001993    -0.02080
Br935      Br  0.39684688  0.43922782  0.79752660    -0.00620
Br936      Br  0.32480109  0.33290106  0.79955840    -0.00700
Br937      Br  0.47125323  0.42539166  0.86959796    -0.00660
Br938      Br  0.40018789  0.31570890  0.86845717    -0.00640
C939        C  0.28975011  0.20519132  0.91739034    -0.01760
C940        C  0.30811420  0.19478268  0.90191766     0.07920
C941        C  0.35202623  0.20003438  0.90329848    -0.01880
C942        C  0.37767063  0.21743986  0.91953394    -0.01880
C943        C  0.35937478  0.22806633  0.93474730     0.08050
C944        C  0.31518347  0.22115174  0.93380910    -0.02080
Br945      Br  0.28893982  0.23222231  0.95536710    -0.00620
Br946      Br  0.23061022  0.19929769  0.91625078    -0.00700
Br947      Br  0.43813391  0.22674716  0.92117211    -0.00660
Br948      Br  0.37709185  0.18104654  0.88357199    -0.00640
C949        C  0.95455292  0.32635406  0.81242302    -0.01760
C950        C  0.96021112  0.34843830  0.82964714     0.07920
C951        C  0.92892641  0.32545584  0.84407608    -0.01880
C952        C  0.89523824  0.28018300  0.84179465    -0.01880
C953        C  0.89385825  0.25660055  0.82559190     0.08050
C954        C  0.92193001  0.28029779  0.81053728    -0.02080
Br955      Br  0.91736874  0.24878229  0.78785144    -0.00620
Br956      Br  0.99062865  0.35892092  0.79121667    -0.00700
Br957      Br  0.85228265  0.24876213  0.86151092    -0.00660
Br958      Br  0.93448189  0.35364608  0.86783770    -0.00640
C959        C  0.02569517  0.14359070  0.86486709    -0.01760
C960        C  0.01005934  0.15371288  0.84849937     0.07920
C961        C  0.04129786  0.18365162  0.83546985    -0.01880
C962        C  0.08782477  0.19988989  0.83781676    -0.01880
C963        C  0.10314759  0.18404880  0.85287110     0.08050
C964        C  0.07200486  0.15847921  0.86704843    -0.02080
Br965      Br  0.09238529  0.14496274  0.88990687    -0.00620
Br966      Br  0.98343020  0.10791076  0.88407723    -0.00700
Br967      Br  0.12887012  0.24392182  0.82008452    -0.00660
Br968      Br  0.02000466  0.20325335  0.81454785    -0.00640
C969        C  0.65521764  0.07273719  0.83869381    -0.01760
C970        C  0.67069105  0.04260479  0.84377273     0.07920
C971        C  0.64013970  0.00226670  0.85349370    -0.01880
C972        C  0.59546786  0.99191959  0.85692791    -0.01880
C973        C  0.57922829  0.01875680  0.84944952     0.08050
C974        C  0.60929037  0.05985196  0.84094646    -0.02080
Br975      Br  0.58624944  0.09710483  0.83157065    -0.00620
Br976      Br  0.69558194  0.13234455  0.82906214    -0.00700
Br977      Br  0.55418755  0.93870813  0.87089600    -0.00660
Br978      Br  0.65589668  0.95785180  0.86135515    -0.00640
C979        C  0.82917914  0.17200527  0.93141415    -0.01760
C980        C  0.78317283  0.15718775  0.93482781     0.07920
C981        C  0.74996136  0.12776249  0.92235533    -0.01880
C982        C  0.76260440  0.11224521  0.90673556    -0.01880
C983        C  0.80849371  0.12553519  0.90369906     0.08050
C984        C  0.84178640  0.15589760  0.91600665    -0.02080
Br985      Br  0.90459785  0.17383113  0.91238744    -0.00620
Br986      Br  0.87520998  0.21486466  0.94787361    -0.00700
Br987      Br  0.71668545  0.07428178  0.88926764    -0.00660
Br988      Br  0.68688187  0.10670985  0.92716079    -0.00640
C989        C  0.60158730  0.21415084  0.99577298    -0.01760
C990        C  0.59122342  0.17069558  0.99018631     0.07920
C991        C  0.54577408  0.13755213  0.98705938    -0.01880
C992        C  0.51118504  0.14833727  0.98928056    -0.01880
C993        C  0.52234595  0.19265528  0.99399962     0.08050
C994        C  0.56789436  0.22575002  0.99649628    -0.02080
Br995      Br  0.58522487  0.28815817  0.99970895    -0.00620
Br996      Br  0.66081082  0.25671355  0.00503330    -0.00700
Br997      Br  0.44873092  0.10212700  0.98665235    -0.00660
Br998      Br  0.53099112  0.07767514  0.97997015    -0.00640
C999        C  0.72376395  0.67355149  0.80908641    -0.01760
C1000       C  0.74163914  0.65079487  0.81883404     0.07920
C1001       C  0.71326556  0.61273394  0.82944502    -0.01880
C1002       C  0.66845094  0.60180397  0.83297526    -0.01880
C1003       C  0.65242616  0.63005347  0.82591674     0.08050
C1004       C  0.67917014  0.66325559  0.81241266    -0.02080
Br1005     Br  0.65646382  0.69519823  0.79789810    -0.00620
Br1006     Br  0.76277155  0.72200117  0.79252497    -0.00700
Br1007     Br  0.63163487  0.54900310  0.84798334    -0.00660
Br1008     Br  0.73793052  0.57823223  0.84027608    -0.00640
C1009       C  0.80315766  0.86284136  0.83838747    -0.01760
C1010       C  0.84199716  0.86504051  0.84612908     0.07920
C1011       C  0.87104285  0.90164015  0.85737295    -0.01880
C1012       C  0.86349270  0.93791344  0.85949230    -0.01880
C1013       C  0.82669430  0.93747019  0.85056435     0.08050
C1014       C  0.79504124  0.89881816  0.84090795    -0.02080
Br1015     Br  0.74181339  0.89612593  0.83054279    -0.00620
Br1016     Br  0.76232635  0.81146516  0.82380302    -0.00700
Br1017     Br  0.90436299  0.98910776  0.87413265    -0.00660
Br1018     Br  0.92317848  0.90358801  0.86869825    -0.00640
C1019       C  0.08392607  0.92735264  0.85360766    -0.01760
C1020       C  0.05193776  0.91029821  0.83902830     0.07920
C1021       C  0.05801557  0.93884644  0.82367973    -0.01880
C1022       C  0.08940417  0.98498954  0.82450500    -0.01880
C1023       C  0.12083330  0.00243295  0.83917496     0.08050
C1024       C  0.11921535  0.97279960  0.85327445    -0.02080
Br1025     Br  0.16626680  0.99344305  0.87178019    -0.00620
Br1026     Br  0.08032261  0.88954918  0.87417835    -0.00700
Br1027     Br  0.08549456  0.02412410  0.80606587    -0.00660
Br1028     Br  0.02662174  0.91526271  0.80039510    -0.00640
C1029       C  0.94780363  0.61779359  0.85511460    -0.01760
C1030       C  0.96155409  0.65091024  0.84119241     0.07920
C1031       C  0.99202369  0.65467865  0.82751551    -0.01880
C1032       C  0.00734221  0.62397203  0.82691385    -0.01880
C1033       C  0.99665487  0.59200042  0.84169739     0.08050
C1034       C  0.96641273  0.58921925  0.85580311    -0.02080
Br1035     Br  0.95043996  0.54765506  0.87629412    -0.00620
Br1036     Br  0.90319549  0.61169707  0.87301907    -0.00700
Br1037     Br  0.04014978  0.62640135  0.80442566    -0.00660
Br1038     Br  0.01358632  0.70343518  0.80961099    -0.00640
C1039       C  0.57559846  0.44138368  0.98820492    -0.01760
C1040       C  0.56221657  0.40222164  0.99916705     0.07920
C1041       C  0.59496401  0.40181193  0.01125116    -0.01880
C1042       C  0.64077343  0.43307461  0.00895267    -0.01880
C1043       C  0.65431289  0.47223692  0.99832078     0.08050
C1044       C  0.62112380  0.47712997  0.98853970    -0.02080
Br1045     Br  0.63719321  0.53343457  0.97640428    -0.00620
Br1046     Br  0.53225430  0.44874411  0.97373077    -0.00700
Br1047     Br  0.68443238  0.41882607  0.01934753    -0.00660
Br1048     Br  0.57909308  0.36417440  0.03331575    -0.00640
C1049       C  0.82314093  0.37447827  0.00501404    -0.01760
C1050       C  0.78820821  0.34249640  0.99352923     0.07920
C1051       C  0.76888858  0.35781740  0.97995812    -0.01880
C1052       C  0.78214256  0.40379955  0.97889060    -0.01880
C1053       C  0.81631812  0.43511534  0.99054431     0.08050
C1054       C  0.83790437  0.42059597  0.00304099    -0.02080
Br1055     Br  0.88742242  0.46443015  0.01772789    -0.00620
Br1056     Br  0.85109882  0.35625426  0.02380069    -0.00700
Br1057     Br  0.75172158  0.42405273  0.96223679    -0.00660
Br1058     Br  0.72172066  0.31627910  0.96358725    -0.00640
C1059       C  0.89451821  0.66752407  0.92796472    -0.01760
C1060       C  0.84958736  0.64806295  0.93478455     0.07920
C1061       C  0.81957897  0.65949835  0.92607540    -0.01880
C1062       C  0.83447979  0.69048545  0.91128919    -0.01880
C1063       C  0.87778309  0.70643711  0.90333704     0.08050
C1064       C  0.90795934  0.69507910  0.91195919    -0.02080
Br1065     Br  0.96772359  0.71564094  0.90192574    -0.00620
Br1066     Br  0.93960329  0.65931787  0.94082067    -0.00700
Br1067     Br  0.79564435  0.71305810  0.90294166    -0.00660
Br1068     Br  0.75660233  0.63121798  0.93333891    -0.00640
C1069       C  0.79153112  0.96978339  0.75096248    -0.01760
C1070       C  0.79234925  0.99421735  0.73498730     0.07920
C1071       C  0.80785464  0.04099047  0.73681651    -0.01880
C1072       C  0.81953354  0.06194608  0.75437289    -0.01880
C1073       C  0.81824718  0.03738953  0.77025530     0.08050
C1074       C  0.80533704  0.99148212  0.76834144    -0.02080
Br1075     Br  0.80481028  0.95725877  0.78970708    -0.00620
Br1076     Br  0.76905312  0.90582212  0.74958469    -0.00700
Br1077     Br  0.83966559  0.12529184  0.75654670    -0.00660
Br1078     Br  0.81668380  0.07832042  0.71527401    -0.00640
C1079       C  0.61202704  0.69284891  0.66594939    -0.01760
C1080       C  0.63375942  0.67220673  0.67467771     0.07920
C1081       C  0.66462442  0.69488393  0.68922574    -0.01880
C1082       C  0.67625993  0.73923072  0.69394928    -0.01880
C1083       C  0.65751737  0.76158942  0.68397035     0.08050
C1084       C  0.62165712  0.73599263  0.67134846    -0.02080
Br1085     Br  0.58249572  0.75719579  0.66195099    -0.00620
Br1086     Br  0.57140498  0.66361627  0.64536781    -0.00700
Br1087     Br  0.71513356  0.76710759  0.71510075    -0.00660
Br1088     Br  0.68981170  0.66477629  0.70340619    -0.00640
C1089       C  0.57794533  0.93959983  0.66492337    -0.01760
C1090       C  0.62364973  0.96690912  0.65935947     0.07920
C1091       C  0.63516437  0.00337018  0.64707541    -0.01880
C1092       C  0.60295890  0.01582019  0.64258630    -0.01880
C1093       C  0.55901427  0.99159878  0.64989083     0.08050
C1094       C  0.54563611  0.95154204  0.65973750    -0.02080
Br1095     Br  0.48336378  0.91519496  0.66719606    -0.00620
Br1096     Br  0.55948030  0.88831015  0.68108899    -0.00700
Br1097     Br  0.61949194  0.06856817  0.62763808    -0.00660
Br1098     Br  0.69448354  0.03624200  0.63591167    -0.00640
C1099       C  0.68818012  0.86777721  0.57030028    -0.01760
C1100       C  0.64554774  0.86450802  0.56750155     0.07920
C1101       C  0.62608598  0.87679762  0.58190513    -0.01880
C1102       C  0.64818763  0.89076447  0.59907713    -0.01880
C1103       C  0.69004218  0.89275654  0.60201533     0.08050
C1104       C  0.71006204  0.88149470  0.58754496    -0.02080
Br1105     Br  0.76616466  0.88198176  0.59165191    -0.00620
Br1106     Br  0.71714939  0.85260043  0.55089295    -0.00700
Br1107     Br  0.62138081  0.90887622  0.61829694    -0.00660
Br1108     Br  0.57076993  0.87796577  0.57786683    -0.00640
C1109       C  0.99357186  0.76987488  0.74154776    -0.01760
C1110       C  0.00375875  0.81044200  0.73262569     0.07920
C1111       C  0.98673425  0.83682951  0.74007873    -0.01880
C1112       C  0.96065494  0.82349785  0.75652218    -0.01880
C1113       C  0.95252163  0.78403780  0.76634001     0.08050
C1114       C  0.96768253  0.75625475  0.75805869    -0.02080
Br1115     Br  0.95209940  0.69792427  0.76806754    -0.00620
Br1116     Br  0.01645366  0.73320544  0.73123432    -0.00700
Br1117     Br  0.93235404  0.85773890  0.76389128    -0.00660
Br1118     Br  0.99654642  0.89015542  0.72695950    -0.00640
C1119       C  0.25457746  0.96783194  0.67168926    -0.01760
C1120       C  0.23911147  0.92633061  0.68096762     0.07920
C1121       C  0.27040739  0.91328503  0.68644368    -0.01880
C1122       C  0.31697499  0.94222423  0.68310966    -0.01880
C1123       C  0.33217055  0.98407367  0.67417175     0.08050
C1124       C  0.30079604  0.99655305  0.66836713    -0.02080
Br1125     Br  0.32100971  0.05182399  0.65455745    -0.00620
Br1126     Br  0.21242635  0.98400605  0.66171270    -0.00700
Br1127     Br  0.35978177  0.92481229  0.69106270    -0.00660
Br1128     Br  0.24936089  0.85607026  0.69859108    -0.00640
C1129       C  0.05814295  0.66319120  0.66791937    -0.01760
C1130       C  0.03235417  0.68016589  0.65931100     0.07920
C1131       C  0.99960259  0.65343292  0.64588349    -0.01880
C1132       C  0.98974039  0.60899421  0.64268475    -0.01880
C1133       C  0.01159021  0.59083961  0.65303060     0.08050
C1134       C  0.04781126  0.61875728  0.66458264    -0.02080
Br1135     Br  0.08109533  0.59422231  0.67667509    -0.00620
Br1136     Br  0.10509418  0.69829941  0.68565563    -0.00700
Br1137     Br  0.94545663  0.57169816  0.62451219    -0.00660
Br1138     Br  0.96818173  0.67691660  0.63162135    -0.00640
C1139       C  0.90694540  0.90589055  0.65029675    -0.01760
C1140       C  0.86380365  0.87570362  0.65734076     0.07920
C1141       C  0.85208825  0.83086139  0.66111107    -0.01880
C1142       C  0.88405605  0.81668142  0.65854491    -0.01880
C1143       C  0.92888252  0.84790897  0.65292776     0.08050
C1144       C  0.93981167  0.89288552  0.64872089    -0.02080
Br1145     Br  0.00052983  0.93977262  0.64247977    -0.00620
Br1146     Br  0.92179574  0.96627293  0.64337396    -0.00700
Br1147     Br  0.86519678  0.75397683  0.66215740    -0.00660
Br1148     Br  0.79140557  0.78847638  0.66912047    -0.00640
C1149       C  0.35019019  0.77344756  0.51047301    -0.01760
C1150       C  0.33885563  0.80760529  0.51056176     0.07920
C1151       C  0.37293619  0.85263891  0.51364608    -0.01880
C1152       C  0.41816827  0.86342617  0.51641213    -0.01880
C1153       C  0.42959577  0.82920094  0.51624926     0.08050
C1154       C  0.39510823  0.78406108  0.51335414    -0.02080
Br1155     Br  0.40883643  0.73605671  0.51184133    -0.00620
Br1156     Br  0.30406111  0.71143108  0.50649313    -0.00700
Br1157     Br  0.46426800  0.92511872  0.52065209    -0.00660
Br1158     Br  0.35825047  0.90004347  0.51283786    -0.00640
C1159       C  0.14259431  0.77147933  0.58542177    -0.01760
C1160       C  0.13911366  0.78984881  0.56860600     0.07920
C1161       C  0.12239623  0.81981367  0.56825984    -0.01880
C1162       C  0.11308056  0.83494573  0.58488769    -0.01880
C1163       C  0.11668984  0.81688706  0.60206204     0.08050
C1164       C  0.12983412  0.78337107  0.60203445    -0.02080
Br1165     Br  0.12819589  0.75017664  0.62409542    -0.00620
Br1166     Br  0.16548527  0.73019217  0.58552573    -0.00700
Br1167     Br  0.09749269  0.88172564  0.58355183    -0.00660
Br1168     Br  0.10900194  0.83735466  0.54478125    -0.00640
C1169       C  0.14686256  0.20615999  0.75065209    -0.01760
C1170       C  0.18141016  0.23056513  0.73748869     0.07920
C1171       C  0.22599707  0.24084756  0.74163471    -0.01880
C1172       C  0.23583606  0.22669816  0.75850037    -0.01880
C1173       C  0.20134016  0.20234464  0.77147760     0.08050
C1174       C  0.15681443  0.19196310  0.76751250    -0.02080
Br1175     Br  0.10934491  0.15757629  0.78518117    -0.00620
Br1176     Br  0.08614501  0.19394592  0.74608912    -0.00700
Br1177     Br  0.29654747  0.23973776  0.76380675    -0.00660
Br1178     Br  0.27375347  0.27250149  0.72401903    -0.00640
C1179       C  0.01518087  0.33884942  0.68759293    -0.01760
C1180       C  0.02537356  0.37838373  0.67717390     0.07920
C1181       C  0.07150168  0.40844925  0.67221852    -0.01880
C1182       C  0.10450725  0.39609470  0.67537871    -0.01880
C1183       C  0.09295605  0.35569561  0.68448140     0.08050
C1184       C  0.04947906  0.32911088  0.69177500    -0.02080
Br1185     Br  0.03683311  0.27647192  0.70626935    -0.00620
Br1186     Br  0.95481363  0.29484366  0.69580308    -0.00700
Br1187     Br  0.16538187  0.43257391  0.66608784    -0.00660
Br1188     Br  0.09200638  0.46697691  0.66113411    -0.00640
C1189       C  0.15407982  0.08457906  0.64663541    -0.01760
C1190       C  0.14713868  0.10359030  0.66275395     0.07920
C1191       C  0.12907525  0.07637189  0.67874093    -0.01880
C1192       C  0.11108362  0.02979902  0.67775730    -0.01880
C1193       C  0.11860665  0.01020759  0.66186500     0.08050
C1194       C  0.14141827  0.03848245  0.64639530    -0.02080
Br1195     Br  0.15632828  0.01563166  0.62468139    -0.00620
Br1196     Br  0.18021141  0.12099248  0.62470173    -0.00700
Br1197     Br  0.07167661  0.99391862  0.69786257    -0.00660
Br1198     Br  0.13131166  0.10273756  0.70279035    -0.00640
C1199       C  0.92191161  0.06851010  0.67127877    -0.01760
C1200       C  0.89088698  0.07723103  0.66201176     0.07920
C1201       C  0.90493249  0.12066939  0.65516089    -0.01880
C1202       C  0.95069741  0.15482657  0.65680190    -0.01880
C1203       C  0.98260963  0.14495269  0.66476812     0.08050
C1204       C  0.96780136  0.10136630  0.67192873    -0.02080
Br1205     Br  0.01013730  0.08463148  0.68157210    -0.00620
Br1206     Br  0.90072090  0.01207484  0.68432146    -0.00700
Br1207     Br  0.96886905  0.21537823  0.64904459    -0.00660
Br1208     Br  0.86137368  0.13310345  0.64380602    -0.00640
C1209       C  0.33720784  0.40555180  0.65138083    -0.01760
C1210       C  0.32288784  0.36686745  0.66260070     0.07920
C1211       C  0.35510170  0.35995581  0.67178269    -0.01880
C1212       C  0.40072697  0.39294984  0.67104782    -0.01880
C1213       C  0.41560120  0.42899207  0.65846743     0.08050
C1214       C  0.38387454  0.43601948  0.64883967    -0.02080
Br1215     Br  0.40440608  0.48743737  0.63272382    -0.00620
Br1216     Br  0.29310216  0.41571562  0.63904765    -0.00700
Br1217     Br  0.44204071  0.39222814  0.68918900    -0.00660
Br1218     Br  0.33765274  0.30458213  0.68466475    -0.00640
C1219       C  0.14184941  0.53193274  0.50416119    -0.01760
C1220       C  0.17898128  0.53472676  0.51380320     0.07920
C1221       C  0.20305786  0.57008810  0.52642977    -0.01880
C1222       C  0.19225397  0.60439495  0.52826251    -0.01880
C1223       C  0.15799616  0.60384824  0.51725134     0.08050
C1224       C  0.13154274  0.56663868  0.50578879    -0.02080
Br1225     Br  0.08320721  0.56495385  0.49138539    -0.00620
Br1226     Br  0.10578577  0.48103487  0.48848211    -0.00700
Br1227     Br  0.22541284  0.65334515  0.54526691    -0.00660
Br1228     Br  0.25320185  0.57345395  0.54005684    -0.00640
C1229       C  0.42435715  0.59553160  0.52129581    -0.01760
C1230       C  0.39357513  0.57697093  0.50642271     0.07920
C1231       C  0.40180639  0.60294393  0.49001295    -0.01880
C1232       C  0.43491837  0.64867956  0.48966371    -0.01880
C1233       C  0.46495356  0.66804037  0.50478518     0.08050
C1234       C  0.46086553  0.64025312  0.52016073    -0.02080
Br1235     Br  0.50574796  0.66214116  0.53960733    -0.00620
Br1236     Br  0.41637354  0.56102186  0.54360711    -0.00700
Br1237     Br  0.43467932  0.68438737  0.46877065    -0.00660
Br1238     Br  0.36938945  0.57624810  0.46718060    -0.00640
C1239       C  0.15387441  0.32679704  0.59379750    -0.01760
C1240       C  0.18259805  0.31299754  0.60215352     0.07920
C1241       C  0.22630613  0.32898045  0.59445077    -0.01880
C1242       C  0.24017811  0.35694725  0.57855202    -0.01880
C1243       C  0.21220986  0.37223529  0.57085467     0.08050
C1244       C  0.16957822  0.35804011  0.57906204    -0.02080
Br1245     Br  0.13276237  0.38308374  0.57090101    -0.00620
Br1246     Br  0.09129575  0.30132373  0.60132573    -0.00700
Br1247     Br  0.29691501  0.37187589  0.56695942    -0.00660
Br1248     Br  0.26915034  0.31470890  0.60558977    -0.00640
C1249       C  0.46705801  0.29596344  0.08266733    -0.01760
C1250       C  0.43769519  0.30160692  0.07051249     0.07920
C1251       C  0.42325686  0.33235129  0.07542704    -0.01880
C1252       C  0.43639400  0.35533558  0.09252491    -0.01880
C1253       C  0.46571018  0.34964619  0.10446603     0.08050
C1254       C  0.48203036  0.32094974  0.09923163    -0.02080
Br1255     Br  0.52553864  0.31638075  0.11475427    -0.00620
Br1256     Br  0.48523534  0.25224710  0.07733913    -0.00700
Br1257     Br  0.41585261  0.39633910  0.09941698    -0.00660
Br1258     Br  0.38832662  0.34615066  0.05834669    -0.00640
C1259       C  0.27490532  0.45047297  0.42016654    -0.01760
C1260       C  0.29954442  0.45547449  0.43644741     0.07920
C1261       C  0.34619773  0.47044579  0.43522194    -0.01880
C1262       C  0.36836263  0.48186744  0.41782668    -0.01880
C1263       C  0.34383011  0.47761838  0.40149522     0.08050
C1264       C  0.29687207  0.46138085  0.40279381    -0.02080
Br1265     Br  0.26192943  0.45237688  0.38068514    -0.00620
Br1266     Br  0.21066621  0.42748076  0.42175014    -0.00700
Br1267     Br  0.43272700  0.50581970  0.41649015    -0.00660
Br1268     Br  0.37979628  0.47567958  0.45747745    -0.00640
C1269       C  0.44655722  0.44028398  0.26912646    -0.01760
C1270       C  0.44232151  0.47911427  0.26956093     0.07920
C1271       C  0.45791627  0.50910091  0.25446627    -0.01880
C1272       C  0.47663490  0.49996312  0.23887661    -0.01880
C1273       C  0.47699873  0.45884758  0.23759729     0.08050
C1274       C  0.46257018  0.42941242  0.25303024    -0.02080
Br1275     Br  0.46283577  0.37340111  0.25219525    -0.00620
Br1276     Br  0.43344176  0.40350950  0.29104451    -0.00700
Br1277     Br  0.50372284  0.54570836  0.21975205    -0.00660
Br1278     Br  0.45223103  0.56230538  0.25492524    -0.00640
C1279       C  0.89195498  0.55595970  0.07032879    -0.01760
C1280       C  0.85844475  0.56815208  0.06851149     0.07920
C1281       C  0.83505747  0.56937383  0.08428797    -0.01880
C1282       C  0.84438265  0.55759578  0.10179973    -0.01880
C1283       C  0.87645939  0.54311262  0.10357922     0.08050
C1284       C  0.90046732  0.54274196  0.08773420    -0.02080
Br1285     Br  0.94637520  0.52608675  0.08993763    -0.00620
Br1286     Br  0.92685426  0.55845879  0.04892981    -0.00700
Br1287     Br  0.81156729  0.56021305  0.12311619    -0.00660
Br1288     Br  0.78999948  0.58715376  0.08172354    -0.00640
C1289       C  0.69076981  0.49880762  0.19046827    -0.01760
C1290       C  0.66488451  0.47046313  0.17564986     0.07920
C1291       C  0.68606415  0.45672487  0.16244449    -0.01880
C1292       C  0.73207900  0.47053235  0.16423075    -0.01880
C1293       C  0.75728470  0.49772023  0.17922816     0.08050
C1294       C  0.73678795  0.51188234  0.19233009    -0.02080
Br1295     Br  0.77202249  0.54889180  0.21277609    -0.00620
Br1296     Br  0.66437641  0.52170989  0.20787318    -0.00700
Br1297     Br  0.76047734  0.45032630  0.14646927    -0.00660
Br1298     Br  0.65217078  0.41645007  0.14243790    -0.00640
C1299       C  0.08138795  0.65645250  0.41214936    -0.01760
C1300       C  0.11262104  0.64903132  0.40224292     0.07920
C1301       C  0.15610105  0.66479084  0.40963861    -0.01880
C1302       C  0.16893428  0.68913248  0.42642668    -0.01880
C1303       C  0.13767121  0.69673736  0.43656580     0.08050
C1304       C  0.09334601  0.67927976  0.42933358    -0.02080
Br1305     Br  0.04728483  0.68398912  0.44302454    -0.00620
Br1306     Br  0.02135876  0.63416602  0.40225575    -0.00700
Br1307     Br  0.23100336  0.71423499  0.43440502    -0.00660
Br1308     Br  0.19955457  0.65561560  0.39605283    -0.00640
C1309       C  0.97820676  0.56337375  0.26489749    -0.01760
C1310       C  0.01404506  0.55531626  0.26879848     0.07920
C1311       C  0.02392979  0.52992672  0.25636011    -0.01880
C1312       C  0.99903163  0.51388315  0.23986206    -0.01880
C1313       C  0.96417410  0.52320105  0.23572594     0.08050
C1314       C  0.95344998  0.54750884  0.24837806    -0.02080
Br1315     Br  0.90636493  0.56111208  0.24272022    -0.00620
Br1316     Br  0.96335831  0.59713948  0.28194440    -0.00700
Br1317     Br  0.01149945  0.47745009  0.22323021    -0.00660
Br1318     Br  0.06953261  0.51457756  0.26244368    -0.00640
C1319       C  0.18554780  0.49942294  0.33239838    -0.01760
C1320       C  0.19313189  0.53971306  0.32376980     0.07920
C1321       C  0.23029866  0.56252735  0.31152455    -0.01880
C1322       C  0.26185727  0.54785290  0.30959153    -0.01880
C1323       C  0.25511407  0.50881740  0.31882858     0.08050
C1324       C  0.21529826  0.48302184  0.32909308    -0.02080
Br1325     Br  0.20206106  0.42525560  0.33863485    -0.00620
Br1326     Br  0.13564694  0.46697850  0.34931038    -0.00700
Br1327     Br  0.31615369  0.58254424  0.29514179    -0.00660
Br1328     Br  0.24087333  0.61621313  0.29853512    -0.00640
C1329       C  0.64273462  0.09279869  0.09361495    -0.01760
C1330       C  0.63785070  0.12559677  0.10341177     0.07920
C1331       C  0.65352320  0.16835896  0.09528840    -0.01880
C1332       C  0.67304537  0.17797768  0.07740943    -0.01880
C1333       C  0.67850468  0.14534107  0.06763340     0.08050
C1334       C  0.66332047  0.10268232  0.07593490    -0.02080
Br1335     Br  0.67237322  0.05792705  0.06360718    -0.00620
Br1336     Br  0.61991987  0.03355723  0.10421462    -0.00700
Br1337     Br  0.68995838  0.23544504  0.06614050    -0.00660
Br1338     Br  0.65084276  0.21506878  0.10910101    -0.00640
C1339       C  0.71468329  0.27861985  0.18411240    -0.01760
C1340       C  0.72459964  0.24406955  0.17981057     0.07920
C1341       C  0.76713407  0.25662301  0.17165432    -0.01880
C1342       C  0.79789560  0.30214585  0.16731679    -0.01880
C1343       C  0.78869802  0.33608309  0.17274970     0.08050
C1344       C  0.74713955  0.32412639  0.18119617    -0.02080
Br1345     Br  0.73338744  0.37061813  0.18767598    -0.00620
Br1346     Br  0.65568778  0.26562649  0.19242737    -0.00700
Br1347     Br  0.85202813  0.31770036  0.15345112    -0.00660
Br1348     Br  0.78522325  0.21248657  0.16709641    -0.00640
C1349       C  0.48040488  0.23880898  0.16745271    -0.01760
C1350       C  0.48804382  0.26475376  0.18370768     0.07920
C1351       C  0.50814107  0.25620515  0.19911034    -0.01880
C1352       C  0.52647476  0.22754725  0.19749948    -0.01880
C1353       C  0.52515023  0.20690771  0.18024068     0.08050
C1354       C  0.49947013  0.21084486  0.16558706    -0.02080
Br1355     Br  0.48735247  0.17631673  0.14293413    -0.00620
Br1356     Br  0.44323388  0.24009645  0.14745950    -0.00700
Br1357     Br  0.55348235  0.21816677  0.21939388    -0.00660
Br1358     Br  0.50801629  0.28179250  0.22296302    -0.00640
C1359       C  0.54954562  0.88299518  0.40414453    -0.01760
C1360       C  0.51720658  0.89702705  0.40364727     0.07920
C1361       C  0.49633686  0.89865778  0.42015069    -0.01880
C1362       C  0.50736747  0.88594402  0.43710060    -0.01880
C1363       C  0.53982852  0.87175187  0.43766521     0.08050
C1364       C  0.56078364  0.87028784  0.42105883    -0.02080
Br1365     Br  0.60614821  0.85261198  0.42147756    -0.00620
Br1366     Br  0.57892097  0.88168393  0.38155776    -0.00700
Br1367     Br  0.47564529  0.88572047  0.45932675    -0.00660
Br1368     Br  0.45224560  0.91796371  0.41934593    -0.00640
C1369       C  0.30288893  0.76181397  0.33421086    -0.01760
C1370       C  0.31673258  0.80701284  0.33000691     0.07920
C1371       C  0.28439388  0.81850389  0.32404708    -0.01880
C1372       C  0.23868186  0.78465284  0.32188061    -0.01880
C1373       C  0.22523283  0.73950606  0.32592044     0.08050
C1374       C  0.25722402  0.72865254  0.33278890    -0.02080
Br1375     Br  0.23800863  0.66893983  0.34208631    -0.00620
Br1376     Br  0.34654358  0.74425910  0.34114031    -0.00700
Br1377     Br  0.19448687  0.79992168  0.31358730    -0.00660
Br1378     Br  0.30212956  0.88071227  0.31984607    -0.00640
C1379       C  0.48158404  0.74893119  0.34824636    -0.01760
C1380       C  0.49111222  0.77337597  0.33145973     0.07920
C1381       C  0.49268039  0.75313330  0.31475084    -0.01880
C1382       C  0.48026097  0.70724120  0.31453461    -0.01880
C1383       C  0.46696615  0.68158253  0.33124238     0.08050
C1384       C  0.47061916  0.70379212  0.34822377    -0.02080
Br1385     Br  0.46201053  0.67385383  0.37198552    -0.00620
Br1386     Br  0.48247212  0.77672749  0.37168250    -0.00700
Br1387     Br  0.47933236  0.68032560  0.29090409    -0.00660
Br1388     Br  0.50833718  0.78720981  0.29189115    -0.00640
C1389       C  0.57693774  0.03317494  0.24911580    -0.01760
C1390       C  0.54319201  0.02419525  0.23586847     0.07920
C1391       C  0.49875910  0.98806156  0.23884013    -0.01880
C1392       C  0.48816674  0.96152705  0.25498295    -0.01880
C1393       C  0.52164115  0.97101339  0.26845323     0.08050
C1394       C  0.56635672  0.00638945  0.26524507    -0.02080
Br1395     Br  0.61354489  0.01920003  0.28293292    -0.00620
Br1396     Br  0.63814510  0.08126084  0.24493244    -0.00700
Br1397     Br  0.42799595  0.91054444  0.25817247    -0.00660
Br1398     Br  0.45135866  0.97554524  0.22113574    -0.00640
C1399       C  0.09035310  0.74065223  0.16602449    -0.01760
C1400       C  0.08588940  0.76461549  0.18118157     0.07920
C1401       C  0.05200286  0.74087208  0.19465540    -0.01880
C1402       C  0.02012806  0.69514948  0.19199783    -0.01880
C1403       C  0.02246297  0.67267494  0.17609721     0.08050
C1404       C  0.05844504  0.69498443  0.16350650    -0.02080
Br1405     Br  0.06224176  0.66370890  0.14188234    -0.00620
Br1406     Br  0.13808261  0.76908400  0.14766416    -0.00700
Br1407     Br  0.97400021  0.66293870  0.21047754    -0.00660
Br1408     Br  0.05009355  0.77003161  0.21724969    -0.00640
C1409       C  0.40310396  0.04138770  0.17133444    -0.01760
C1410       C  0.41758900  0.01423195  0.16256617     0.07920
C1411       C  0.38592539  0.96912109  0.15869184    -0.01880
C1412       C  0.33979447  0.95222882  0.16263387    -0.01880
C1413       C  0.32465648  0.98196007  0.16870603     0.08050
C1414       C  0.35710163  0.02660750  0.17342517    -0.02080
Br1415     Br  0.34032542  0.06769059  0.18439157    -0.00620
Br1416     Br  0.44587754  0.09577715  0.18363016    -0.00700
Br1417     Br  0.29955528  0.88792747  0.16046300    -0.00660
Br1418     Br  0.40588223  0.93037772  0.14815735    -0.00640
C1419       C  0.29804272  0.84797038  0.92173570    -0.01760
C1420       C  0.32165242  0.87634777  0.93695406     0.07920
C1421       C  0.36602960  0.91335597  0.93361634    -0.01880
C1422       C  0.38700062  0.91930284  0.91609813    -0.01880
C1423       C  0.36387048  0.88989030  0.90133421     0.08050
C1424       C  0.31937468  0.85411541  0.90432993    -0.02080
Br1425     Br  0.28612008  0.81369612  0.88433943    -0.00620
Br1426     Br  0.23449541  0.80294668  0.92349955    -0.00700
Br1427     Br  0.44911972  0.96654917  0.91264854    -0.00660
Br1428     Br  0.39939100  0.95841353  0.95221263    -0.00640
C1429       C  0.06875557  0.71068101  0.98622408    -0.01760
C1430       C  0.08548841  0.75754074  0.98600691     0.07920
C1431       C  0.05506587  0.77366708  0.98785508    -0.01880
C1432       C  0.00858002  0.74339610  0.99058034    -0.01880
C1433       C  0.99234514  0.69662794  0.99230925     0.08050
C1434       C  0.02291192  0.68056026  0.99004949    -0.02080
Br1435     Br  0.00390050  0.61768518  0.99401650    -0.00620
Br1436     Br  0.10860076  0.68679125  0.98246962    -0.00700
Br1437     Br  0.96771810  0.76682503  0.99134330    -0.00660
Br1438     Br  0.07720721  0.83754614  0.98626718    -0.00640
C1439       C  0.30807542  0.06696646  0.02782712    -0.01760
C1440       C  0.29837660  0.08889359  0.01360175     0.07920
C1441       C  0.27379817  0.06452579  0.99792037    -0.01880
C1442       C  0.26458214  0.02030221  0.99520207    -0.01880
C1443       C  0.27870392  0.99989842  0.00852875     0.08050
C1444       C  0.29797289  0.02225564  0.02535341    -0.02080
Br1445     Br  0.31081121  0.99182219  0.04491252    -0.00620
Br1446     Br  0.33886710  0.09967006  0.04983766    -0.00700
Br1447     Br  0.23705768  0.98975829  0.97232241    -0.00660
Br1448     Br  0.25706904  0.09396510  0.97925408    -0.00640
C1449       C  0.16500026  0.85439620  0.07231448    -0.01760
C1450       C  0.20765134  0.85784617  0.06942816     0.07920
C1451       C  0.24073632  0.87654842  0.08343260    -0.01880
C1452       C  0.23181840  0.89291496  0.09983585    -0.01880
C1453       C  0.18921416  0.88922577  0.10277821     0.08050
C1454       C  0.15589970  0.87004725  0.08886675    -0.02080
Br1455     Br  0.09698503  0.86381672  0.09247122    -0.00620
Br1456     Br  0.11761857  0.82653569  0.05391665    -0.00700
Br1457     Br  0.27988620  0.92438266  0.11746678    -0.00660
Br1458     Br  0.29938371  0.88220844  0.07996314    -0.00640
C1459       C  0.68455034  0.95561557  0.18949783    -0.01760
C1460       C  0.65433156  0.90989685  0.18609286     0.07920
C1461       C  0.60944381  0.89591086  0.18162205    -0.01880
C1462       C  0.59588111  0.92809182  0.17854030    -0.01880
C1463       C  0.62851231  0.97529667  0.17882261     0.08050
C1464       C  0.67271903  0.98843068  0.18541923    -0.02080
Br1465     Br  0.71946765  0.05066677  0.18871758    -0.00620
Br1466     Br  0.74406097  0.97288953  0.19868507    -0.00700
Br1467     Br  0.53218779  0.90488395  0.17406664    -0.00660
Br1468     Br  0.56759244  0.83237152  0.17876769    -0.00640
C1469       C  0.90956943  0.81402366  0.16061929    -0.01760
C1470       C  0.89578772  0.84157453  0.15169211     0.07920
C1471       C  0.92779736  0.88088936  0.14241410    -0.01880
C1472       C  0.97398378  0.89470927  0.14339190    -0.01880
C1473       C  0.98829065  0.86989711  0.15424200     0.08050
C1474       C  0.95588713  0.82836823  0.16207834    -0.02080
Br1475     Br  0.97493096  0.79124361  0.17484884    -0.00620
Br1476     Br  0.86503312  0.75813227  0.17176449    -0.00700
Br1477     Br  0.01737741  0.94941669  0.13098105    -0.00660
Br1478     Br  0.90820906  0.91749169  0.12952390    -0.00640
C1479       C  0.58829800  0.65625281  0.16496042    -0.01760
C1480       C  0.63559172  0.67320040  0.16424262     0.07920
C1481       C  0.65141815  0.64355540  0.15927962    -0.01880
C1482       C  0.62088803  0.59863638  0.15451169    -0.01880
C1483       C  0.57375643  0.58106481  0.15634623     0.08050
C1484       C  0.55773180  0.61043193  0.16121952    -0.02080
Br1485     Br  0.49342100  0.58834593  0.16201283    -0.00620
Br1486     Br  0.56402803  0.69491817  0.17078765    -0.00700
Br1487     Br  0.64542632  0.56164963  0.14614364    -0.00660
Br1488     Br  0.71510979  0.66209648  0.16066299    -0.00640
C1489       C  0.50858759  0.69172414  0.92563505    -0.01760
C1490       C  0.54845101  0.70131928  0.93541466     0.07920
C1491       C  0.57612224  0.68517028  0.92777128    -0.01880
C1492       C  0.56465376  0.66141989  0.91069254    -0.01880
C1493       C  0.52332428  0.64948256  0.90172129     0.08050
C1494       C  0.49464613  0.66347101  0.90994035    -0.02080
Br1495     Br  0.43397256  0.64207437  0.90069389    -0.00620
Br1496     Br  0.47363350  0.71989206  0.93230367    -0.00700
Br1497     Br  0.60741970  0.64761190  0.89930863    -0.00660
Br1498     Br  0.62974506  0.69373055  0.94043077    -0.00640
C1499       C  0.66789001  0.98377946  0.97966899    -0.01760
C1500       C  0.69969319  0.00946080  0.99354694     0.07920
C1501       C  0.72578313  0.99250229  0.00179140    -0.01880
C1502       C  0.71746296  0.94928093  0.99720155    -0.01880
C1503       C  0.68113224  0.92150778  0.98566671     0.08050
C1504       C  0.65870834  0.93983396  0.97584534    -0.02080
Br1505     Br  0.61453213  0.90327521  0.95753109    -0.00620
Br1506     Br  0.63702947  0.00818289  0.96563036    -0.00700
Br1507     Br  0.75480860  0.92680950  0.00687267    -0.00660
Br1508     Br  0.76981831  0.02571574  0.02079600    -0.00640
C1509       C  0.43639564  0.87155479  0.00286664    -0.01760
C1510       C  0.40388200  0.85341328  0.01738974     0.07920
C1511       C  0.40846487  0.82558155  0.03079926    -0.01880
C1512       C  0.44009151  0.81111848  0.02813392    -0.01880
C1513       C  0.46667820  0.82323076  0.01186936     0.08050
C1514       C  0.46624523  0.85514188  0.99976777    -0.02080
Br1515     Br  0.50838807  0.87805234  0.97933088    -0.00620
Br1516     Br  0.44334371  0.92071733  0.98756046    -0.00700
Br1517     Br  0.44642292  0.77408551  0.04678295    -0.00660
Br1518     Br  0.37367132  0.80892332  0.05353517    -0.00640
C1519       C  0.67972608  0.66627205  0.02118380    -0.01760
C1520       C  0.69092012  0.70810632  0.01261115     0.07920
C1521       C  0.73744122  0.73908435  0.00875697    -0.01880
C1522       C  0.77011035  0.72568859  0.01072161    -0.01880
C1523       C  0.75759296  0.68283938  0.01767462     0.08050
C1524       C  0.71338099  0.65482590  0.02417211    -0.02080
Br1525     Br  0.69888839  0.59859713  0.03613649    -0.00620
Br1526     Br  0.61852570  0.62141950  0.02792025    -0.00700
Br1527     Br  0.83166241  0.76457313  0.00269470    -0.00660
Br1528     Br  0.75848167  0.80055011  0.00119341    -0.00640
C1529       C  0.64390046  0.77888657  0.10200995    -0.01760
C1530       C  0.68739860  0.81723258  0.10246531     0.07920
C1531       C  0.70521340  0.84451340  0.08671392    -0.01880
C1532       C  0.67994179  0.83299146  0.07026023    -0.01880
C1533       C  0.63584150  0.79481475  0.06970834     0.08050
C1534       C  0.61787207  0.76792063  0.08574579    -0.02080
Br1535     Br  0.55692303  0.71735505  0.08593561    -0.00620
Br1536     Br  0.61939478  0.74213049  0.12394778    -0.00700
Br1537     Br  0.70804761  0.86831098  0.04835502    -0.00660
Br1538     Br  0.76501032  0.89689472  0.08767871    -0.00640
C1539       C  0.26757075  0.38929320  0.17803691    -0.01760
C1540       C  0.23792405  0.34560289  0.18438057     0.07920
C1541       C  0.25455009  0.31741747  0.18986339    -0.01880
C1542       C  0.30034858  0.33117398  0.18736536    -0.01880
C1543       C  0.32965755  0.37299634  0.17855833     0.08050
C1544       C  0.31329386  0.40306800  0.17481356    -0.02080
Br1545     Br  0.35092627  0.46203125  0.16399047    -0.00620
Br1546     Br  0.24403175  0.42864531  0.17242696    -0.00700
Br1547     Br  0.32136300  0.29186359  0.19658167    -0.00660
Br1548     Br  0.21304486  0.25829935  0.19974217    -0.00640
C1549       C  0.09733689  0.09422494  0.16405439    -0.01760
C1550       C  0.12776175  0.13881491  0.15839581     0.07920
C1551       C  0.17006650  0.14946098  0.15069836    -0.01880
C1552       C  0.18153664  0.11553522  0.14862569    -0.01880
C1553       C  0.15123105  0.07134375  0.15456476     0.08050
C1554       C  0.10981851  0.06122461  0.16279519    -0.02080
Br1555     Br  0.07195462  0.00316989  0.17426562    -0.00620
Br1556     Br  0.03745967  0.07713518  0.17299867    -0.00700
Br1557     Br  0.23893815  0.12949804  0.13812036    -0.00660
Br1558     Br  0.21360565  0.21078158  0.14413584    -0.00640
C1559       C  0.90721005  0.08658174  0.18009637    -0.01760
C1560       C  0.92279988  0.10850072  0.16286511     0.07920
C1561       C  0.90326816  0.08515880  0.14638080    -0.01880
C1562       C  0.87145395  0.03869621  0.14700429    -0.01880
C1563       C  0.85940418  0.01526806  0.16428609     0.08050
C1564       C  0.87679603  0.04011503  0.18089263    -0.02080
Br1565     Br  0.86080562  0.01195197  0.20514583    -0.00620
Br1566     Br  0.92820415  0.12085419  0.20286419    -0.00700
Br1567     Br  0.84839475  0.00779312  0.12371182    -0.00660
Br1568     Br  0.92238831  0.11630147  0.12288279    -0.00640
C1569       C  0.03722733  0.44022209  0.15155173    -0.01760
C1570       C  0.99619790  0.43172751  0.15954626     0.07920
C1571       C  0.97256213  0.39473225  0.17157710    -0.01880
C1572       C  0.98597166  0.36263833  0.17343877    -0.01880
C1573       C  0.02643652  0.37030692  0.16521249     0.08050
C1574       C  0.05291646  0.40982810  0.15471370    -0.02080
Br1575     Br  0.10970581  0.42150397  0.14428502    -0.00620
Br1576     Br  0.07181265  0.49353878  0.13675258    -0.00700
Br1577     Br  0.94849292  0.30808188  0.18720990    -0.00660
Br1578     Br  0.92496636  0.39077319  0.18730065    -0.00640
C1579       C  0.16637878  0.47974479  0.92106039    -0.01760
C1580       C  0.13367360  0.45340870  0.93449239     0.07920
C1581       C  0.08791476  0.44017138  0.93095549    -0.01880
C1582       C  0.07551795  0.45564275  0.91495828    -0.01880
C1583       C  0.10845374  0.48310571  0.90163943     0.08050
C1584       C  0.15398644  0.49358966  0.90465742    -0.02080
Br1585     Br  0.20052797  0.52436071  0.88604552    -0.00620
Br1586     Br  0.22855372  0.49500325  0.92464491    -0.00700
Br1587     Br  0.01329310  0.44058062  0.91214809    -0.00660
Br1588     Br  0.04154003  0.40168466  0.94827004    -0.00640
C1589       C  0.25068128  0.27605708  0.99552295    -0.01760
C1590       C  0.29790350  0.30745133  0.99469740     0.07920
C1591       C  0.31245892  0.35219463  0.98881054    -0.01880
C1592       C  0.28060116  0.36505662  0.98434005    -0.01880
C1593       C  0.23429855  0.33535468  0.98735331     0.08050
C1594       C  0.21918454  0.29044900  0.99224951    -0.02080
Br1595     Br  0.15530256  0.24962555  0.99545366    -0.00620
Br1596     Br  0.22775975  0.21314722  0.00097466    -0.00700
Br1597     Br  0.30013272  0.42506074  0.97511996    -0.00660
Br1598     Br  0.37560828  0.39864786  0.98870738    -0.00640
C1599       C  0.17375513  0.64473159  0.02218366    -0.01760
C1600       C  0.19417512  0.67056817  0.00586781     0.07920
C1601       C  0.19447389  0.64768385  0.98954170    -0.01880
C1602       C  0.17541260  0.60083209  0.98975501    -0.01880
C1603       C  0.16246606  0.57678526  0.00667211     0.08050
C1604       C  0.16001592  0.59848361  0.02279062    -0.02080
Br1605     Br  0.13954138  0.56571653  0.04588876    -0.00620
Br1606     Br  0.16227599  0.67090086  0.04372902    -0.00700
Br1607     Br  0.16601032  0.56920185  0.96645626    -0.00660
Br1608     Br  0.22415371  0.67885850  0.96680568    -0.00640
C1609       C  0.36678643  0.53675767  0.01752812    -0.01760
C1610       C  0.33164032  0.54544680  0.01316502     0.07920
C1611       C  0.34085468  0.59008470  0.01205252    -0.01880
C1612       C  0.38531963  0.62584027  0.01372664    -0.01880
C1613       C  0.42168554  0.61745726  0.01594487     0.08050
C1614       C  0.41195189  0.57265552  0.01861002    -0.02080
Br1615     Br  0.46005375  0.55965029  0.02239272    -0.00620
Br1616     Br  0.35328183  0.47566283  0.02125684    -0.00700
Br1617     Br  0.39526745  0.68644081  0.01302951    -0.00660
Br1618     Br  0.29206190  0.60252413  0.00858631    -0.00640
C1619       C  0.98256147  0.27420257  0.01595791    -0.01760
C1620       C  0.99765991  0.31655314  0.00750635     0.07920
C1621       C  0.96610840  0.32823958  0.00102992    -0.01880
C1622       C  0.91997055  0.29681676  0.00188787    -0.01880
C1623       C  0.90457906  0.25603689  0.01158505     0.08050
C1624       C  0.93585688  0.24421099  0.01832438    -0.02080
Br1625     Br  0.91461057  0.18702074  0.03047940    -0.00620
Br1626     Br  0.02571056  0.25825674  0.02505143    -0.00700
Br1627     Br  0.87868308  0.30688579  0.98717063    -0.00660
Br1628     Br  0.98545730  0.38722219  0.99087823    -0.00640
C1629       C  0.15836949  0.35203034  0.07703889    -0.01760
C1630       C  0.13313036  0.37127961  0.06979989     0.07920
C1631       C  0.09267259  0.36203992  0.07911648    -0.01880
C1632       C  0.07880680  0.33534612  0.09539718    -0.01880
C1633       C  0.10248626  0.31382911  0.10166338     0.08050
C1634       C  0.14136145  0.32114036  0.09185079    -0.02080
Br1635     Br  0.17073969  0.28686387  0.09776637    -0.00620
Br1636     Br  0.21846384  0.36935728  0.06808177    -0.00700
Br1637     Br  0.02844211  0.33082622  0.10945253    -0.00660
Br1638     Br  0.05422600  0.38418465  0.06990736    -0.00640
C1639       C  0.44327832  0.17412730  0.58438639    -0.01760
C1640       C  0.43548814  0.14822663  0.56829785     0.07920
C1641       C  0.43935648  0.10919511  0.56913879    -0.01880
C1642       C  0.45226780  0.09692657  0.58581882    -0.01880
C1643       C  0.46105941  0.12341723  0.60191751     0.08050
C1644       C  0.45550188  0.16165064  0.60113118    -0.02080
Br1645     Br  0.46247422  0.19643011  0.62314846    -0.00620
Br1646     Br  0.43596947  0.22628997  0.58351634    -0.00700
Br1647     Br  0.46077734  0.04549379  0.58609378    -0.00660
Br1648     Br  0.42950852  0.07384690  0.54704335    -0.00640
C1649       C  0.25924048  0.26602905  0.51147091    -0.01760
C1650       C  0.29072538  0.31197364  0.51541657     0.07920
C1651       C  0.33247563  0.32258255  0.52394347    -0.01880
C1652       C  0.34358248  0.28872171  0.52659160    -0.01880
C1653       C  0.31565553  0.24554303  0.51944874     0.08050
C1654       C  0.27255575  0.23341186  0.51283528    -0.02080
Br1655     Br  0.23307411  0.17239673  0.50479834    -0.00620
Br1656     Br  0.19739363  0.24612493  0.50463766    -0.00700
Br1657     Br  0.39849556  0.30109882  0.53920251    -0.00660
Br1658     Br  0.37759303  0.38326836  0.53070361    -0.00640
C1659       C  0.30240388  0.99099511  0.47907533    -0.01760
C1660       C  0.29551070  0.01571674  0.49326152     0.07920
C1661       C  0.25331289  0.99461379  0.50276392    -0.01880
C1662       C  0.22166388  0.94903578  0.49942273    -0.01880
C1663       C  0.23265608  0.92313626  0.48788635     0.08050
C1664       C  0.27194890  0.94451030  0.47702963    -0.02080
Br1665     Br  0.28436145  0.90911036  0.45985993    -0.00620
Br1666     Br  0.35187325  0.01986159  0.46163989    -0.00700
Br1667     Br  0.16297484  0.92087019  0.51094989    -0.00660
Br1668     Br  0.23822570  0.02518130  0.52147123    -0.00640
C1669       C  0.23040918  0.02339971  0.25964658    -0.01760
C1670       C  0.19732457  0.02686782  0.26998022     0.07920
C1671       C  0.15341499  0.00901191  0.26262227    -0.01880
C1672       C  0.14301128  0.98909812  0.24483665    -0.01880
C1673       C  0.17627737  0.98584851  0.23436163     0.08050
C1674       C  0.21990170  0.00252254  0.24210999    -0.02080
Br1675     Br  0.26541125  0.99514842  0.22926313    -0.00620
Br1676     Br  0.29102714  0.04886254  0.26927593    -0.00700
Br1677     Br  0.08353472  0.96836539  0.23472583    -0.00660
Br1678     Br  0.10674974  0.00994472  0.27732603    -0.00640
C1679       C  0.31578458  0.27726640  0.30808770    -0.01760
C1680       C  0.33220950  0.25529192  0.31955252     0.07920
C1681       C  0.36734230  0.28166380  0.33218024    -0.01880
C1682       C  0.37632708  0.32498990  0.33701760    -0.01880
C1683       C  0.35494690  0.34520181  0.32733376     0.08050
C1684       C  0.32708554  0.32196491  0.31187349    -0.02080
Br1685     Br  0.30528245  0.35070237  0.29493116    -0.00620
Br1686     Br  0.28157761  0.24800183  0.28599344    -0.00700
Br1687     Br  0.41579145  0.35375080  0.35798969    -0.00660
Br1688     Br  0.40679591  0.26118893  0.34182815    -0.00640
C1689       C  0.39486934  0.06052920  0.32548906    -0.01760
C1690       C  0.36041427  0.04790284  0.33881417     0.07920
C1691       C  0.36305377  0.02903991  0.35588267    -0.01880
C1692       C  0.39689971  0.01775071  0.35862883    -0.01880
C1693       C  0.42839611  0.02613503  0.34445518     0.08050
C1694       C  0.42907185  0.05007150  0.32843745    -0.02080
Br1695     Br  0.47571086  0.06587727  0.30997981    -0.00620
Br1696     Br  0.39369448  0.08910115  0.30255465    -0.00700
Br1697     Br  0.39838885  0.98812042  0.38115235    -0.00660
Br1698     Br  0.32109243  0.01964526  0.37563519    -0.00640
C1699       C  0.31046599  0.11625392  0.43531156    -0.01760
C1700       C  0.35745101  0.14543209  0.43589965     0.07920
C1701       C  0.38163394  0.16424126  0.41955543    -0.01880
C1702       C  0.35897235  0.15500187  0.40242018    -0.01880
C1703       C  0.31094181  0.12550530  0.40145085     0.08050
C1704       C  0.28718800  0.10565855  0.41825810    -0.02080
Br1705     Br  0.22289599  0.06326738  0.41885225    -0.00620
Br1706     Br  0.27799851  0.09117125  0.45825441    -0.00700
Br1707     Br  0.39634265  0.18582551  0.38107187    -0.00660
Br1708     Br  0.44628038  0.20458882  0.42109055    -0.00640
C1709       C  0.65165748  0.55815570  0.57231536    -0.01760
C1710       C  0.68794250  0.55065467  0.56872154     0.07920
C1711       C  0.70003429  0.52879190  0.58224497    -0.01880
C1712       C  0.67709771  0.51602423  0.59939332    -0.01880
C1713       C  0.64209958  0.52518679  0.60319595     0.08050
C1714       C  0.62947697  0.54633910  0.58964961    -0.02080
Br1715     Br  0.58224107  0.55969004  0.59507536    -0.00620
Br1716     Br  0.62991842  0.58137493  0.55305439    -0.00700
Br1717     Br  0.69397433  0.48647020  0.61791907    -0.00660
Br1718     Br  0.74882851  0.51727592  0.57749160    -0.00640
C1719       C  0.93391978  0.67453604  0.52865314    -0.01760
C1720       C  0.91326866  0.69214721  0.51729939     0.07920
C1721       C  0.93987988  0.72764205  0.50512184    -0.01880
C1722       C  0.98502367  0.73949017  0.50145218    -0.01880
C1723       C  0.00499740  0.71789263  0.51130116     0.08050
C1724       C  0.98005208  0.68867430  0.52629456    -0.02080
Br1725     Br  0.00784802  0.66849131  0.54439562    -0.00620
Br1726     Br  0.89764903  0.62896634  0.54673535    -0.00700
Br1727     Br  0.01652187  0.78310532  0.48203028    -0.00660
Br1728     Br  0.91311542  0.75918434  0.49342308    -0.00640
C1729       C  0.60262700  0.40258487  0.47997020    -0.01760
C1730       C  0.59863402  0.43906107  0.48647986     0.07920
C1731       C  0.55635189  0.43135945  0.49282392    -0.01880
C1732       C  0.51963160  0.38697595  0.49419727    -0.01880
C1733       C  0.52577221  0.35028601  0.49024300     0.08050
C1734       C  0.56687588  0.35820225  0.48244790    -0.02080
Br1735     Br  0.57479465  0.30819058  0.47588386    -0.00620
Br1736     Br  0.65678482  0.41397449  0.46712469    -0.00700
Br1737     Br  0.46104045  0.37624094  0.50146354    -0.00660
Br1738     Br  0.54948279  0.48112020  0.50076276    -0.00640
C1739       C  0.70198047  0.72064672  0.47956004    -0.01760
C1740       C  0.69970570  0.70245999  0.49743781     0.07920
C1741       C  0.68343292  0.71622472  0.51244081    -0.01880
C1742       C  0.66615735  0.74505323  0.50938761    -0.01880
C1743       C  0.66932530  0.76415234  0.49166058     0.08050
C1744       C  0.68735900  0.75199656  0.47673536    -0.02080
Br1745     Br  0.69186832  0.77822588  0.45260038    -0.00620
Br1746     Br  0.72665546  0.70390790  0.45907299    -0.00700
Br1747     Br  0.63265001  0.75337764  0.52906553    -0.00660
Br1748     Br  0.68356387  0.69483161  0.53716873    -0.00640
C1749       C  0.77348387  0.83119368  0.25119303    -0.01760
C1750       C  0.77831425  0.81152143  0.23496323     0.07920
C1751       C  0.79292933  0.77979833  0.23615677    -0.01880
C1752       C  0.80331871  0.76824716  0.25354000    -0.01880
C1753       C  0.79920637  0.78851088  0.26981649     0.08050
C1754       C  0.78399670  0.81985878  0.26854353    -0.02080
Br1755     Br  0.77644654  0.84677053  0.29062250    -0.00620
Br1756     Br  0.75311634  0.87427040  0.24950325    -0.00700
Br1757     Br  0.82555883  0.72667315  0.25494064    -0.00660
Br1758     Br  0.79868013  0.75223183  0.21387980    -0.00640
C1759       C  0.88128060  0.62668523  0.33492778    -0.01760
C1760       C  0.89079835  0.66248758  0.32282149     0.07920
C1761       C  0.93221022  0.68454685  0.31332517    -0.01880
C1762       C  0.96590629  0.67370222  0.31713740    -0.01880
C1763       C  0.95764889  0.63963913  0.33027094     0.08050
C1764       C  0.91461496  0.61535109  0.33879691    -0.02080
Br1765     Br  0.90234980  0.57009365  0.35746686    -0.00620
Br1766     Br  0.82377978  0.59649906  0.34764250    -0.00700
Br1767     Br  0.02321005  0.70655977  0.30436655    -0.00660
Br1768     Br  0.94340546  0.73220139  0.29609312    -0.00640
C1769       C  0.64397787  0.59623887  0.34109329    -0.01760
C1770       C  0.65907946  0.64254401  0.34459427     0.07920
C1771       C  0.62797363  0.65351856  0.35287483    -0.01880
C1772       C  0.58337405  0.61955035  0.35667124    -0.01880
C1773       C  0.56747254  0.57532086  0.35073945     0.08050
C1774       C  0.59798093  0.56331686  0.34351452    -0.02080
Br1775     Br  0.57549014  0.50177210  0.33613121    -0.00620
Br1776     Br  0.68487242  0.57592756  0.33338446    -0.00700
Br1777     Br  0.54170909  0.63354352  0.36889626    -0.00660
Br1778     Br  0.64266884  0.71481808  0.35776247    -0.00640
C1779       C  0.83675196  0.71107363  0.41697534    -0.01760
C1780       C  0.80366145  0.70045526  0.40331872     0.07920
C1781       C  0.76080767  0.66153328  0.40526364    -0.01880
C1782       C  0.75069978  0.63380036  0.42100745    -0.01880
C1783       C  0.78328805  0.64510330  0.43512266     0.08050
C1784       C  0.82683824  0.68359516  0.43279216    -0.02080
Br1785     Br  0.87360476  0.70081599  0.45117940    -0.00620
Br1786     Br  0.89540340  0.76462239  0.41425826    -0.00700
Br1787     Br  0.69298527  0.57866838  0.42239871    -0.00660
Br1788     Br  0.71643749  0.64438529  0.38584767    -0.00640
C1789       C  0.03102128  0.86980914  0.35168245    -0.01760
C1790       C  0.99932286  0.87980558  0.34351963     0.07920
C1791       C  0.01387789  0.92434442  0.33765411    -0.01880
C1792       C  0.05926319  0.95810562  0.33982438    -0.01880
C1793       C  0.09062039  0.94828761  0.34819905     0.08050
C1794       C  0.07650603  0.90405846  0.35402037    -0.02080
Br1795     Br  0.11959048  0.89079421  0.36532922    -0.00620
Br1796     Br  0.01331622  0.80885721  0.35870192    -0.00700
Br1797     Br  0.07904181  0.01768444  0.33014862    -0.00660
Br1798     Br  0.97191685  0.94051235  0.32708470    -0.00640
C1799       C  0.97512001  0.23028276  0.25978820    -0.01760
C1800       C  0.97520850  0.19590546  0.27036582     0.07920
C1801       C  0.00021190  0.17605030  0.26428257    -0.01880
C1802       C  0.02494559  0.19029335  0.24757372    -0.01880
C1803       C  0.02415755  0.22417023  0.23652498     0.08050
C1804       C  0.99908809  0.24421253  0.24289072    -0.02080
Br1805     Br  0.99554922  0.28984319  0.22858213    -0.00620
Br1806     Br  0.94152670  0.25799660  0.26860776    -0.00700
Br1807     Br  0.06235691  0.16509658  0.24082592    -0.00660
Br1808     Br  0.00231236  0.13073075  0.27949738    -0.00640
C1809       C  0.67074109  0.07782151  0.32619010    -0.01760
C1810       C  0.65607851  0.03659475  0.33560608     0.07920
C1811       C  0.68811980  0.02679650  0.34311559    -0.01880
C1812       C  0.73422209  0.05694177  0.34056987    -0.01880
C1813       C  0.74854857  0.09426481  0.32868497     0.08050
C1814       C  0.71704645  0.10597496  0.32216789    -0.02080
Br1815     Br  0.73754040  0.16055163  0.30806201    -0.00620
Br1816     Br  0.62796002  0.09603498  0.31896875    -0.00700
Br1817     Br  0.77765468  0.05062440  0.35550753    -0.00660
Br1818     Br  0.66929953  0.97323855  0.35772620    -0.00640
C1819       C  0.95502892  0.39646643  0.35191117    -0.01760
C1820       C  0.99398120  0.42874614  0.34263589     0.07920
C1821       C  0.01528040  0.41527179  0.32948438    -0.01880
C1822       C  0.00103475  0.36961796  0.32717669    -0.01880
C1823       C  0.96340495  0.33694743  0.33720278     0.08050
C1824       C  0.93954130  0.35042646  0.34921188    -0.02080
Br1825     Br  0.88678657  0.30655796  0.36267148    -0.00620
Br1826     Br  0.92271333  0.41561621  0.36788096    -0.00700
Br1827     Br  0.03214573  0.35227897  0.30956273    -0.00660
Br1828     Br  0.06111896  0.45925969  0.31318242    -0.00640
C1829       C  0.80257506  0.92115500  0.34059600    -0.01760
C1830       C  0.83012158  0.90833834  0.35016537     0.07920
C1831       C  0.87136640  0.94136944  0.35776327    -0.01880
C1832       C  0.88662823  0.98714904  0.35468413    -0.01880
C1833       C  0.86069327  0.00022277  0.34386496     0.08050
C1834       C  0.81853665  0.96692252  0.33674123    -0.02080
Br1835     Br  0.78343614  0.98296223  0.32084809    -0.00620
Br1836     Br  0.74323663  0.87561276  0.33269705    -0.00700
Br1837     Br  0.94569584  0.03140988  0.36347847    -0.00660
Br1838     Br  0.90771381  0.92320523  0.37181167    -0.00640
C1839       C  0.09724537  0.13201463  0.36236845    -0.01760
C1840       C  0.12937554  0.14955935  0.34786691     0.07920
C1841       C  0.13320711  0.18571698  0.33716160    -0.01880
C1842       C  0.10155744  0.20029531  0.33924890    -0.01880
C1843       C  0.06583300  0.17902996  0.35244742     0.08050
C1844       C  0.06749627  0.14854728  0.36528255    -0.02080
Br1845     Br  0.03213728  0.13172770  0.38787254    -0.00620
Br1846     Br  0.09068473  0.08246800  0.37749306    -0.00700
Br1847     Br  0.10979356  0.25052832  0.32407336    -0.00660
Br1848     Br  0.18299515  0.21653907  0.31994368    -0.00640
C1849       C  0.84120784  0.35516182  0.57164834    -0.01760
C1850       C  0.85966072  0.32799202  0.56685436     0.07920
C1851       C  0.89050037  0.32521356  0.57890826    -0.01880
C1852       C  0.90177560  0.34821154  0.59602325    -0.01880
C1853       C  0.88352629  0.37592371  0.60094680     0.08050
C1854       C  0.85337236  0.37942206  0.58844929    -0.02080
Br1855     Br  0.83018467  0.41930942  0.59353349    -0.00620
Br1856     Br  0.80056294  0.36062681  0.55462257    -0.00700
Br1857     Br  0.94010661  0.33867687  0.61291301    -0.00660
Br1858     Br  0.91680370  0.28910767  0.57189237    -0.00640
C1859       C  0.68866946  0.03789407  0.49767856    -0.01760
C1860       C  0.69338799  0.00517679  0.50756493     0.07920
C1861       C  0.72893017  0.01847441  0.52056469    -0.01880
C1862       C  0.75864224  0.06450787  0.52401714    -0.01880
C1863       C  0.75262427  0.09680118  0.51454129     0.08050
C1864       C  0.71866931  0.08347296  0.50098402    -0.02080
Br1865     Br  0.71595071  0.12811229  0.48565253    -0.00620
Br1866     Br  0.64305566  0.02063424  0.47866079    -0.00700
Br1867     Br  0.80798701  0.08368096  0.54122752    -0.00660
Br1868     Br  0.73663402  0.97419147  0.53401744    -0.00640
C1869       C  0.62955006  0.18596927  0.48352493    -0.01760
C1870       C  0.65944923  0.21177846  0.49797628     0.07920
C1871       C  0.64254498  0.22608754  0.51278623    -0.01880
C1872       C  0.59696905  0.21493029  0.51317497    -0.01880
C1873       C  0.56701910  0.18997274  0.49844066     0.08050
C1874       C  0.58361898  0.17458516  0.48389112    -0.02080
Br1875     Br  0.54438657  0.13822380  0.46402974    -0.00620
Br1876     Br  0.65046991  0.16540825  0.46293399    -0.00700
Br1877     Br  0.57705604  0.23381562  0.53491861    -0.00660
Br1878     Br  0.68204734  0.26433471  0.53242150    -0.00640
C1879       C  0.77292518  0.42603426  0.49794863    -0.01760
C1880       C  0.80640856  0.47177249  0.49676004     0.07920
C1881       C  0.85119683  0.48368105  0.49204620    -0.01880
C1882       C  0.86226931  0.44983339  0.48870826    -0.01880
C1883       C  0.82813704  0.40412709  0.48899739     0.08050
C1884       C  0.78312466  0.39276932  0.49297031    -0.02080
Br1885     Br  0.73404844  0.33152648  0.49185906    -0.00620
Br1886     Br  0.71262872  0.40773309  0.50681324    -0.00700
Br1887     Br  0.92369426  0.46609978  0.48300322    -0.00660
Br1888     Br  0.89803113  0.54617745  0.49147596    -0.00640
C1889       C  0.06515772  0.34658201  0.47538123    -0.01760
C1890       C  0.08385848  0.32428445  0.48503256     0.07920
C1891       C  0.05638917  0.28747054  0.49646776    -0.01880
C1892       C  0.01213112  0.27722493  0.50059273    -0.01880
C1893       C  0.99465100  0.30311857  0.49260269     0.08050
C1894       C  0.02062883  0.33628449  0.47914430    -0.02080
Br1895     Br  0.99590701  0.36756943  0.46559177    -0.00620
Br1896     Br  0.10240833  0.39323037  0.45789253    -0.00700
Br1897     Br  0.97813498  0.23061677  0.51870157    -0.00660
Br1898     Br  0.08181580  0.25427867  0.50789209    -0.00640
C1899       C  0.82852332  0.18930413  0.40369049    -0.01760
C1900       C  0.87082491  0.19180171  0.40130248     0.07920
C1901       C  0.90160381  0.20553564  0.41610519    -0.01880
C1902       C  0.89069563  0.21764246  0.43308149    -0.01880
C1903       C  0.84860306  0.21579962  0.43548146     0.08050
C1904       C  0.81753247  0.20141981  0.42070892    -0.02080
Br1905     Br  0.75883783  0.19578152  0.42394627    -0.00620
Br1906     Br  0.78414429  0.16688129  0.38400229    -0.00700
Br1907     Br  0.93542402  0.23882558  0.45257769    -0.00660
Br1908     Br  0.96001291  0.21018185  0.41297811    -0.00640
loop_ 
_geom_bond_atom_site_label_1 
_geom_bond_atom_site_label_2 
_geom_bond_distance 
_geom_bond_site_symmetry_2 
_ccdc_geom_bond_type 
Zn1           O5   1.953       .  S
Zn1           O6   2.046       .  S
Zn1          O10   2.010       .  S
Zn1          O17   2.046       .  S
Zn2           O5   1.913       .  S
Zn2           O7   1.964       .  S
Zn2           O9   1.960       .  S
Zn2          O13   1.970       .  S
Zn3           O5   1.935       .  S
Zn3           O8   2.025       .  S
Zn3          O11   2.044       .  S
Zn3          O14   2.014       .  S
Zn4           O5   1.927       .  S
Zn4          O12   2.059       .  S
Zn4          O15   2.019       .  S
Zn4          O16   2.011       .  S
O6           C18   1.277       .  A
O7           C19   1.269       .  A
O8           C20   1.275       .  A
O9           C18   1.265       .  A
O10          C20   1.273       .  A
O11          C19   1.279       .  A
O12          C21   1.281       .  A
O13          C22   1.266       .  A
O14          C21   1.274       .  A
O15          C22   1.274       .  A
O16          C23   1.276       .  A
O17          C23   1.278       .  A
C18        C1903   1.480       .  S
C19        C1893   1.481       .  S
C20        C1883   1.484       .  S
C21        C1850   1.482       .  S
C22        C1863   1.462       .  S
C23        C1870   1.499       .  S
Zn24         O28   1.926       .  S
Zn24         O29   2.031       .  S
Zn24         O33   2.034       .  S
Zn24         O40   2.002       .  S
Zn25         O28   1.922       .  S
Zn25         O30   1.987       .  S
Zn25         O32   1.965       .  S
Zn25         O36   1.969       .  S
Zn26         O28   1.909       .  S
Zn26         O31   1.999   1_655  S
Zn26         O34   2.018       .  S
Zn26         O37   1.993       .  S
Zn27         O28   1.931       .  S
Zn27         O35   2.059       .  S
Zn27         O38   2.033       .  S
Zn27         O39   2.039       .  S
O29          C41   1.277       .  A
O30          C42   1.270       .  A
O31          C43   1.269       .  A
O32          C41   1.267       .  A
O33          C43   1.275   1_655  A
O34          C42   1.274       .  A
O35          C44   1.282       .  A
O36          C45   1.266       .  A
O37          C44   1.273       .  A
O38          C45   1.277       .  A
O39          C46   1.277       .  A
O40          C46   1.273       .  A
C41        C1900   1.474       .  S
C42        C1823   1.474       .  S
C43        C1843   1.505       .  S
C44        C1800   1.475       .  S
C45        C1813   1.466       .  S
C46        C1833   1.480       .  S
Zn47         O51   1.939       .  S
Zn47         O52   2.053       .  S
Zn47         O56   2.024       .  S
Zn47         O63   2.003       .  S
Zn48         O51   1.910       .  S
Zn48         O53   2.031       .  S
Zn48         O55   1.968       .  S
Zn48         O59   2.005       .  S
Zn49         O51   1.905       .  S
Zn49         O54   1.982       .  S
Zn49         O57   2.018       .  S
Zn49         O60   1.938       .  S
Zn50         O51   1.948       .  S
Zn50         O58   2.057       .  S
Zn50         O61   2.056       .  S
Zn50         O62   2.047       .  S
O52          C64   1.279       .  A
O53          C65   1.275       .  A
O54          C66   1.268       .  A
O55          C64   1.270       .  A
O56          C66   1.273       .  A
O57          C65   1.273       .  A
O58          C67   1.279       .  A
O59          C68   1.273       .  A
O60          C67   1.267       .  A
O61          C68   1.278       .  A
O62          C69   1.278       .  A
O63          C69   1.274       .  A
C64        C1830   1.467       .  S
C65        C1790   1.489       .  S
C66        C1780   1.473       .  S
C67        C1760   1.459       .  S
C68        C1753   1.484       .  S
C69        C1770   1.507       .  S
Zn70         O74   1.946       .  S
Zn70         O75   2.006       .  S
Zn70         O79   2.058       .  S
Zn70         O86   2.012       .  S
Zn71         O74   1.951       .  S
Zn71         O76   2.064       .  S
Zn71         O78   2.038       .  S
Zn71         O82   2.071       .  S
Zn72         O74   1.919       .  S
Zn72         O77   2.000       .  S
Zn72         O80   2.006       .  S
Zn72         O83   2.017       .  S
Zn73         O74   1.930       .  S
Zn73         O81   2.006       .  S
Zn73         O84   1.972       .  S
Zn73         O85   1.994       .  S
O75          C87   1.275       .  A
O76          C88   1.280       .  A
O77          C89   1.273       .  A
O78          C87   1.278       .  A
O79          C89   1.279       .  A
O80          C88   1.272       .  A
O81          C90   1.272       .  A
O82          C91   1.280       .  A
O83          C90   1.274       .  A
O84          C91   1.269       .  A
O85          C92   1.269       .  A
O86          C92   1.272       .  A
C87        C1740   1.476       .  S
C88        C1710   1.485       .  S
C89        C1730   1.480       .  S
C90        C1880   1.479       .  S
C91        C1720   1.473       .  S
C92        C1783   1.487       .  S
Zn93         O97   1.932       .  S
Zn93         O98   2.041       .  S
Zn93        O102   2.066       .  S
Zn93        O109   2.043       .  S
Zn94         O97   1.926       .  S
Zn94         O99   2.023       .  S
Zn94        O101   2.007       .  S
Zn94        O105   2.053       .  S
Zn95         O97   1.916       .  S
Zn95        O100   2.017       .  S
Zn95        O103   2.027   1_545  S
Zn95        O106   2.045       .  S
Zn96         O97   1.896       .  S
Zn96        O104   1.969       .  S
Zn96        O107   1.975       .  S
Zn96        O108   1.972       .  S
O98         C110   1.280       .  A
O99         C111   1.276   1_545  A
O100        C112   1.276       .  A
O101        C110   1.274       .  A
O102        C112   1.282       .  A
O103        C111   1.275       .  A
O104        C113   1.269       .  A
O105        C114   1.276       .  A
O106        C113   1.280       .  A
O107        C114   1.264       .  A
O108        C115   1.267       .  A
O109        C115   1.277       .  A
C110       C1840   1.486       .  S
C111       C1793   1.480       .  S
C112       C1670   1.488       .  S
C113       C1690   1.471       .  S
C114       C1703   1.509       .  S
C115       C1680   1.498       .  S
Zn116       O120   1.939       .  S
Zn116       O121   2.081       .  S
Zn116       O125   2.046       .  S
Zn116       O132   2.036       .  S
Zn117       O120   1.896       .  S
Zn117       O122   2.041       .  S
Zn117       O124   1.958       .  S
Zn117       O128   2.042       .  S
Zn118       O120   1.890       .  S
Zn118       O123   1.983       .  S
Zn118       O126   2.022       .  S
Zn118       O129   1.970       .  S
Zn119       O120   1.911       .  S
Zn119       O127   2.048       .  S
Zn119       O130   2.042       .  S
Zn119       O131   2.028       .  S
O121        C133   1.282       .  A
O122        C134   1.278       .  A
O123        C135   1.271       .  A
O124        C133   1.265       .  A
O125        C135   1.279       .  A
O126        C134   1.274       .  A
O127        C136   1.277       .  A
O128        C137   1.279       .  A
O129        C136   1.270       .  A
O130        C137   1.278       .  A
O131        C138   1.276       .  A
O132        C138   1.278       .  A
C133       C1873   1.504       .  S
C134       C1733   1.479       .  S
C135       C1700   1.470       .  S
C136       C1653   1.466       .  S
C137       C1640   1.488       .  S
C138       C1660   1.503       .  S
Zn139       O143   1.897   1_556  S
Zn139       O144   2.028       .  S
Zn139       O148   1.953       .  S
Zn139       O155   2.035       .  S
Zn140       O143   1.886       .  S
Zn140       O145   1.977       .  S
Zn140       O147   2.015       .  S
Zn140       O151   1.936       .  S
Zn141       O143   1.946       .  S
Zn141       O146   2.060       .  S
Zn141       O149   2.053       .  S
Zn141       O152   1.998       .  S
Zn142       O143   1.941   1_556  S
Zn142       O150   2.033       .  S
Zn142       O153   2.078       .  S
Zn142       O154   2.063       .  S
O144        C156   1.279   1_556  A
O145        C157   1.267       .  A
O146        C158   1.278       .  A
O147        C156   1.274       .  A
O148        C158   1.267   1_556  A
O149        C157   1.275       .  A
O150        C159   1.280   1_556  A
O151        C160   1.266   1_554  A
O152        C159   1.276       .  A
O153        C160   1.281       .  A
O154        C161   1.279       .  A
O155        C161   1.277       .  A
C156       C1610   1.478       .  S
C157       C1630   1.504       .  S
C158       C1603   1.484       .  S
C159       C1620   1.470   1_455  S
C160       C1593   1.471       .  S
C161       C1580   1.505       .  S
Zn162       O166   1.891       .  S
Zn162       O167   1.998       .  S
Zn162       O171   2.009       .  S
Zn162       O178   1.955   1_455  S
Zn163       O166   1.937       .  S
Zn163       O168   2.043       .  S
Zn163       O170   2.048       .  S
Zn163       O174   2.026       .  S
Zn164       O166   1.889       .  S
Zn164       O169   2.021       .  S
Zn164       O172   1.946       .  S
Zn164       O175   1.982       .  S
Zn165       O166   1.938       .  S
Zn165       O173   2.048       .  S
Zn165       O176   2.004       .  S
Zn165       O177   2.054   1_455  S
O167        C179   1.271       .  A
O168        C180   1.277       .  A
O169        C181   1.274       .  A
O170        C179   1.277       .  A
O171        C181   1.274       .  A
O172        C180   1.267       .  A
O173        C182   1.276       .  A
O174        C183   1.278       .  A
O175        C182   1.270       .  A
O176        C183   1.276       .  A
O177        C184   1.279       .  A
O178        C184   1.268       .  A
C179       C1803   1.495       .  S
C180       C1540   1.461       .  S
C181       C1550   1.480       .  S
C182       C1633   1.493       .  S
C183       C1573   1.467       .  S
C184       C1560   1.475       .  S
Zn185       O189   1.909       .  S
Zn185       O190   1.979       .  S
Zn185       O194   1.990       .  S
Zn185       O201   1.955       .  S
Zn186       O189   1.949       .  S
Zn186       O191   2.077       .  S
Zn186       O193   2.020       .  S
Zn186       O197   2.014       .  S
Zn187       O189   1.915   1_556  S
Zn187       O192   2.071       .  S
Zn187       O195   1.963   1_556  S
Zn187       O198   2.033       .  S
Zn188       O189   1.954   1_556  S
Zn188       O196   2.055       .  S
Zn188       O199   2.040       .  S
Zn188       O200   2.064       .  S
O190        C202   1.268       .  A
O191        C203   1.281       .  A
O192        C204   1.282   1_556  A
O193        C202   1.273       .  A
O194        C204   1.270       .  A
O195        C203   1.268       .  A
O196        C205   1.277       .  A
O197        C206   1.276       .  A
O198        C205   1.277       .  A
O199        C206   1.279   1_556  A
O200        C207   1.278       .  A
O201        C207   1.268   1_554  A
C202       C1533   1.480       .  S
C203       C1613   1.491       .  S
C204       C1513   1.485       .  S
C205       C1490   1.517       .  S
C206       C1520   1.508       .  S
C207       C1503   1.466       .  S
Zn208       O212   1.963       .  S
Zn208       O213   2.085       .  S
Zn208       O217   2.039       .  S
Zn208       O224   2.052       .  S
Zn209       O212   1.916       .  S
Zn209       O214   1.996       .  S
Zn209       O216   1.934       .  S
Zn209       O220   1.988       .  S
Zn210       O212   1.921       .  S
Zn210       O215   2.020       .  S
Zn210       O218   2.022       .  S
Zn210       O221   1.973       .  S
Zn211       O212   1.937       .  S
Zn211       O219   2.047       .  S
Zn211       O222   2.003       .  S
Zn211       O223   1.981       .  S
O213        C225   1.281       .  A
O214        C226   1.271       .  A
O215        C227   1.274       .  A
O216        C225   1.264       .  A
O217        C227   1.276       .  A
O218        C226   1.276       .  A
O219        C228   1.276       .  A
O220        C229   1.269       .  A
O221        C228   1.268       .  A
O222        C229   1.270       .  A
O223        C230   1.273       .  A
O224        C230   1.280       .  A
C225       C1460   1.474       .  S
C226       C1563   1.493   1_565  S
C227       C1750   1.478       .  S
C228       C1470   1.468       .  S
C229       C1530   1.464       .  S
C230       C1480   1.496       .  S
Zn231       O235   1.921   1_556  S
Zn231       O236   2.002       .  S
Zn231       O240   2.043       .  S
Zn231       O247   2.035       .  S
Zn232       O235   1.944       .  S
Zn232       O237   2.018       .  S
Zn232       O239   2.019       .  S
Zn232       O243   2.061       .  S
Zn233       O235   1.924   1_556  S
Zn233       O238   2.037       .  S
Zn233       O241   2.043   1_556  S
Zn233       O244   2.042   1_556  S
Zn234       O235   1.901       .  S
Zn234       O242   1.980       .  S
Zn234       O245   1.959       .  S
Zn234       O246   1.987       .  S
O236        C248   1.273   1_556  A
O237        C249   1.275       .  A
O238        C250   1.275       .  A
O239        C248   1.274       .  A
O240        C250   1.278       .  A
O241        C249   1.276       .  A
O242        C251   1.272       .  A
O243        C252   1.279       .  A
O244        C251   1.280       .  A
O245        C252   1.266       .  A
O246        C253   1.270   1_554  A
O247        C253   1.275       .  A
C248       C1600   1.498       .  S
C249       C1510   1.507       .  S
C250       C1420   1.514       .  S
C251       C1443   1.471       .  S
C252       C1450   1.484       .  S
C253       C1430   1.482       .  S
Zn254       O258   1.906       .  S
Zn254       O259   2.005       .  S
Zn254       O263   2.008   1_565  S
Zn254       O270   2.020       .  S
Zn255       O258   1.924       .  S
Zn255       O260   2.031       .  S
Zn255       O262   2.072       .  S
Zn255       O266   2.018       .  S
Zn256       O258   1.921       .  S
Zn256       O261   2.022   1_565  S
Zn256       O264   2.009       .  S
Zn256       O267   2.037       .  S
Zn257       O258   1.913       .  S
Zn257       O265   2.002       .  S
Zn257       O268   1.970       .  S
Zn257       O269   1.980       .  S
O259        C271   1.275       .  A
O260        C272   1.280       .  A
O261        C273   1.275       .  A
O262        C271   1.283       .  A
O263        C273   1.272       .  A
O264        C272   1.275       .  A
O265        C274   1.272       .  A
O266        C275   1.273       .  A
O267        C274   1.278       .  A
O268        C275   1.266       .  A
O269        C276   1.266       .  A
O270        C276   1.276       .  A
C271       C1673   1.496       .  S
C272       C1473   1.476   1_455  S
C273       C1553   1.473       .  S
C274       C1453   1.485       .  S
C275       C1400   1.485       .  S
C276       C1413   1.487       .  S
Zn277       O281   1.905       .  S
Zn277       O282   1.991       .  S
Zn277       O286   1.947       .  S
Zn277       O293   2.022       .  S
Zn278       O281   1.940       .  S
Zn278       O283   2.011       .  S
Zn278       O285   2.040       .  S
Zn278       O289   2.054       .  S
Zn279       O281   1.945       .  S
Zn279       O284   2.052   1_565  S
Zn279       O287   2.020   1_565  S
Zn279       O290   2.049       .  S
Zn280       O281   1.905       .  S
Zn280       O288   2.008       .  S
Zn280       O291   1.964       .  S
Zn280       O292   2.015       .  S
O282        C294   1.271       .  A
O283        C295   1.277   1_565  A
O284        C296   1.278   1_545  A
O285        C294   1.276       .  A
O286        C296   1.268       .  A
O287        C295   1.275       .  A
O288        C297   1.272       .  A
O289        C298   1.279       .  A
O290        C297   1.277       .  A
O291        C298   1.269       .  A
O292        C299   1.275       .  A
O293        C299   1.274       .  A
C294       C1393   1.484       .  S
C295       C1810   1.473       .  S
C296       C1693   1.465   1_565  S
C297       C1360   1.479       .  S
C298       C1380   1.479       .  S
C299       C1370   1.480       .  S
Zn300       O304   1.907       .  S
Zn300       O305   1.996   1_545  S
Zn300       O309   1.988       .  S
Zn300       O316   1.967       .  S
Zn301       O304   1.891       .  S
Zn301       O306   2.010       .  S
Zn301       O308   2.048       .  S
Zn301       O312   2.021       .  S
Zn302       O304   1.912       .  S
Zn302       O307   2.024       .  S
Zn302       O310   2.059       .  S
Zn302       O313   2.044       .  S
Zn303       O304   1.930       .  S
Zn303       O311   2.032       .  S
Zn303       O314   2.028       .  S
Zn303       O315   2.056       .  S
O305        C317   1.272   1_565  A
O306        C318   1.275       .  A
O307        C319   1.277       .  A
O308        C317   1.280       .  A
O309        C319   1.272       .  A
O310        C318   1.281       .  A
O311        C320   1.276       .  A
O312        C321   1.275       .  A
O313        C320   1.278       .  A
O314        C321   1.276       .  A
O315        C322   1.279       .  A
O316        C322   1.267       .  A
C317       C1463   1.512   1_545  S
C318       C1330   1.487       .  S
C319       C1410   1.475       .  S
C320       C1353   1.508       .  S
C321       C1340   1.501       .  S
C322       C1390   1.480       .  S
Zn323       O327   1.932       .  S
Zn323       O328   2.019       .  S
Zn323       O332   2.072       .  S
Zn323       O339   2.046       .  S
Zn324       O327   1.920       .  S
Zn324       O329   1.980   1_455  S
Zn324       O331   1.980   1_455  S
Zn324       O335   1.962       .  S
Zn325       O327   1.925       .  S
Zn325       O330   2.004       .  S
Zn325       O333   2.031       .  S
Zn325       O336   2.024       .  S
Zn326       O327   1.933       .  S
Zn326       O334   2.019       .  S
Zn326       O337   2.047       .  S
Zn326       O338   2.018       .  S
O328        C340   1.275       .  A
O329        C341   1.272       .  A
O330        C342   1.274       .  A
O331        C340   1.269   1_655  A
O332        C342   1.283       .  A
O333        C341   1.278   1_455  A
O334        C343   1.276       .  A
O335        C344   1.265       .  A
O336        C343   1.274       .  A
O337        C344   1.278       .  A
O338        C345   1.275       .  A
O339        C345   1.280       .  A
C340       C1820   1.465   1_455  S
C341       C1763   1.480       .  S
C342       C1300   1.489       .  S
C343       C1373   1.478       .  S
C344       C1310   1.473       .  S
C345       C1320   1.488       .  S
Zn346       O350   1.916       .  S
Zn346       O351   1.979       .  S
Zn346       O355   1.964       .  S
Zn346       O362   1.980   1_655  S
Zn347       O350   1.935       .  S
Zn347       O352   2.051       .  S
Zn347       O354   2.031       .  S
Zn347       O358   2.077       .  S
Zn348       O350   1.932       .  S
Zn348       O353   2.038       .  S
Zn348       O356   2.006       .  S
Zn348       O359   2.013       .  S
Zn349       O350   1.915       .  S
Zn349       O357   2.006       .  S
Zn349       O360   1.994       .  S
Zn349       O361   2.021       .  S
O351        C363   1.268       .  A
O352        C364   1.279       .  A
O353        C365   1.276       .  A
O354        C363   1.277       .  A
O355        C365   1.266       .  A
O356        C364   1.275       .  A
O357        C366   1.272       .  A
O358        C367   1.284       .  A
O359        C366   1.273       .  A
O360        C367   1.272       .  A
O361        C368   1.276       .  A
O362        C368   1.272   1_455  A
C363       C1570   1.466       .  S
C364       C1343   1.480       .  S
C365       C1313   1.471       .  S
C366       C1293   1.469       .  S
C367       C1283   1.489       .  S
C368       C1403   1.470   1_655  S
Zn369       O373   1.941       .  S
Zn369       O374   2.075       .  S
Zn369       O378   2.031       .  S
Zn369       O385   2.066       .  S
Zn370       O373   1.920       .  S
Zn370       O375   1.991       .  S
Zn370       O377   1.946       .  S
Zn370       O381   2.004       .  S
Zn371       O373   1.947       .  S
Zn371       O376   2.012       .  S
Zn371       O379   2.050       .  S
Zn371       O382   2.072       .  S
Zn372       O373   1.904       .  S
Zn372       O380   1.975       .  S
Zn372       O383   2.007       .  S
Zn372       O384   2.023       .  S
O374        C386   1.279       .  A
O375        C387   1.271       .  A
O376        C388   1.274       .  A
O377        C386   1.264       .  A
O378        C388   1.278       .  A
O379        C387   1.277       .  A
O380        C389   1.269       .  A
O381        C390   1.273       .  A
O382        C389   1.280       .  A
O383        C390   1.275       .  A
O384        C391   1.275       .  A
O385        C391   1.281       .  A
C386       C1773   1.472       .  S
C387       C1270   1.480       .  S
C388       C1683   1.497       .  S
C389       C1323   1.475       .  S
C390       C1383   1.492       .  S
C391       C1263   1.491       .  S
Zn392       O396   1.925       .  S
Zn392       O397   2.022       .  S
Zn392       O401   2.030       .  S
Zn392       O408   2.017       .  S
Zn393       O396   1.908       .  S
Zn393       O398   1.943       .  S
Zn393       O400   1.979       .  S
Zn393       O404   1.991       .  S
Zn394       O396   1.954       .  S
Zn394       O399   2.023       .  S
Zn394       O402   2.079       .  S
Zn394       O405   2.008       .  S
Zn395       O396   1.942       .  S
Zn395       O403   2.024       .  S
Zn395       O406   2.030       .  S
Zn395       O407   2.057       .  S
O397        C409   1.277       .  A
O398        C410   1.262       .  A
O399        C411   1.276       .  A
O400        C409   1.271       .  A
O401        C411   1.274       .  A
O402        C410   1.279       .  A
O403        C412   1.277       .  A
O404        C413   1.270       .  A
O405        C412   1.274       .  A
O406        C413   1.274       .  A
O407        C414   1.279       .  A
O408        C414   1.274       .  A
C409       C1543   1.491       .  S
C410       C1273   1.491       .  S
C411       C1350   1.500       .  S
C412       C1290   1.485       .  S
C413       C1483   1.490       .  S
C414       C1253   1.482       .  S
Zn415       O419   1.880       .  S
Zn415       O420   1.942       .  S
Zn415       O424   2.012       .  S
Zn415       O431   1.978       .  S
Zn416       O419   1.935       .  S
Zn416       O421   2.030       .  S
Zn416       O423   2.051       .  S
Zn416       O427   2.021       .  S
Zn417       O419   1.904       .  S
Zn417       O422   2.039       .  S
Zn417       O425   2.047       .  S
Zn417       O428   1.966       .  S
Zn418       O419   1.938       .  S
Zn418       O426   2.074       .  S
Zn418       O429   2.013       .  S
Zn418       O430   2.062       .  S
O420        C432   1.267       .  A
O421        C433   1.275       .  A
O422        C434   1.278       .  A
O423        C432   1.277       .  A
O424        C434   1.273       .  A
O425        C433   1.278       .  A
O426        C435   1.282       .  A
O427        C436   1.276       .  A
O428        C435   1.269       .  A
O429        C436   1.274       .  A
O430        C437   1.279       .  A
O431        C437   1.269       .  A
C432       C1890   1.459       .  S
C433       C1260   1.483       .  S
C434       C1220   1.476       .  S
C435       C1230   1.494       .  S
C436       C1650   1.498       .  S
C437       C1243   1.494       .  S
Zn438       O442   1.894       .  S
Zn438       O443   1.980       .  S
Zn438       O447   1.936       .  S
Zn438       O454   2.033       .  S
Zn439       O442   1.946       .  S
Zn439       O444   2.020       .  S
Zn439       O446   2.053       .  S
Zn439       O450   2.067       .  S
Zn440       O442   1.940       .  S
Zn440       O445   2.060       .  S
Zn440       O448   2.036       .  S
Zn440       O451   2.066       .  S
Zn441       O442   1.894       .  S
Zn441       O449   2.010       .  S
Zn441       O452   1.965       .  S
Zn441       O453   2.009       .  S
O443        C455   1.268       .  A
O444        C456   1.277       .  A
O445        C457   1.279       .  A
O446        C455   1.276       .  A
O447        C457   1.266       .  A
O448        C456   1.279       .  A
O449        C458   1.272       .  A
O450        C459   1.280       .  A
O451        C458   1.280       .  A
O452        C459   1.270       .  A
O453        C460   1.273       .  A
O454        C460   1.276       .  A
C455       C1240   1.501       .  S
C456       C1210   1.474       .  S
C457       C1183   1.462       .  S
C458       C1170   1.493       .  S
C459       C1190   1.490       .  S
C460       C1203   1.484   1_455  S
Zn461       O465   1.945       .  S
Zn461       O466   2.052       .  S
Zn461       O470   2.072       .  S
Zn461       O477   2.069       .  S
Zn462       O465   1.950       .  S
Zn462       O467   2.051       .  S
Zn462       O469   2.013       .  S
Zn462       O473   2.015       .  S
Zn463       O465   1.908       .  S
Zn463       O468   2.006       .  S
Zn463       O471   1.987       .  S
Zn463       O474   2.030       .  S
Zn464       O465   1.918       .  S
Zn464       O472   2.017       .  S
Zn464       O475   1.997       .  S
Zn464       O476   1.977       .  S
O466        C478   1.278       .  A
O467        C479   1.276       .  A
O468        C480   1.274       .  A
O469        C478   1.274       .  A
O470        C480   1.282       .  A
O471        C479   1.269       .  A
O472        C481   1.275       .  A
O473        C482   1.273       .  A
O474        C481   1.278       .  A
O475        C482   1.271       .  A
O476        C483   1.269       .  A
O477        C483   1.279       .  A
C478       C1723   1.505       .  S
C479       C1223   1.473       .  S
C480       C1303   1.506       .  S
C481       C1150   1.482       .  S
C482       C1160   1.469       .  S
C483       C1663   1.475       .  S
Zn484       O488   1.917       .  S
Zn484       O489   1.998       .  S
Zn484       O493   2.029       .  S
Zn484       O500   2.067       .  S
Zn485       O488   1.944       .  S
Zn485       O490   2.053       .  S
Zn485       O492   2.039       .  S
Zn485       O496   2.003   1_455  S
Zn486       O488   1.911       .  S
Zn486       O491   1.991       .  S
Zn486       O494   1.956       .  S
Zn486       O497   1.977       .  S
Zn487       O488   1.925       .  S
Zn487       O495   2.058       .  S
Zn487       O498   2.052   1_455  S
Zn487       O499   2.005       .  S
O489        C501   1.276       .  A
O490        C502   1.277       .  A
O491        C503   1.269       .  A
O492        C501   1.279       .  A
O493        C503   1.275       .  A
O494        C502   1.262       .  A
O495        C504   1.283       .  A
O496        C505   1.270       .  A
O497        C504   1.273       .  A
O498        C505   1.277       .  A
O499        C506   1.274       .  A
O500        C506   1.282       .  A
C501       C1193   1.500   1_565  S
C502       C1163   1.493       .  S
C503       C1120   1.477       .  S
C504       C1130   1.487       .  S
C505       C1143   1.503       .  S
C506       C1110   1.490       .  S
Zn507       O511   1.906       .  S
Zn507       O512   1.989       .  S
Zn507       O516   1.981       .  S
Zn507       O523   1.961       .  S
Zn508       O511   1.904       .  S
Zn508       O513   1.991       .  S
Zn508       O515   2.018       .  S
Zn508       O519   2.014       .  S
Zn509       O511   1.926       .  S
Zn509       O514   2.032       .  S
Zn509       O517   2.072       .  S
Zn509       O520   2.009       .  S
Zn510       O511   1.941       .  S
Zn510       O518   2.020       .  S
Zn510       O521   2.027       .  S
Zn510       O522   2.047       .  S
O512        C524   1.273       .  A
O513        C525   1.272       .  A
O514        C526   1.275       .  A
O515        C524   1.277       .  A
O516        C526   1.271       .  A
O517        C525   1.283       .  A
O518        C527   1.276       .  A
O519        C528   1.273       .  A
O520        C527   1.276       .  A
O521        C528   1.275       .  A
O522        C529   1.279       .  A
O523        C529   1.265       .  A
C524       C1860   1.470   1_565  S
C525       C1363   1.487       .  S
C526       C1743   1.474       .  S
C527       C1233   1.495       .  S
C528       C1153   1.488       .  S
C529       C1100   1.480       .  S
Zn530       O534   1.943       .  S
Zn530       O535   2.080       .  S
Zn530       O539   2.046       .  S
Zn530       O546   2.051       .  S
Zn531       O534   1.925       .  S
Zn531       O536   2.029   1_565  S
Zn531       O538   2.011       .  S
Zn531       O542   2.035       .  S
Zn532       O534   1.927       .  S
Zn532       O537   2.020       .  S
Zn532       O540   2.007   1_565  S
Zn532       O543   2.037       .  S
Zn533       O534   1.906       .  S
Zn533       O541   1.969       .  S
Zn533       O544   1.987       .  S
Zn533       O545   1.955       .  S
O535        C547   1.284       .  A
O536        C548   1.274       .  A
O537        C549   1.275       .  A
O538        C547   1.275       .  A
O539        C549   1.279       .  A
O540        C548   1.274       .  A
O541        C550   1.266       .  A
O542        C551   1.278       .  A
O543        C550   1.276       .  A
O544        C551   1.271       .  A
O545        C552   1.265       .  A
O546        C552   1.277       .  A
C547       C1070   1.503       .  S
C548       C1200   1.474       .  S
C549       C1140   1.483       .  S
C550       C1103   1.476       .  S
C551       C1090   1.485       .  S
C552       C1083   1.500       .  S
Zn553       O557   1.944       .  S
Zn553       O558   2.083       .  S
Zn553       O562   2.035       .  S
Zn553       O569   2.050       .  S
Zn554       O557   1.895   1_556  S
Zn554       O559   1.988       .  S
Zn554       O561   1.944   1_556  S
Zn554       O565   2.029       .  S
Zn555       O557   1.933   1_556  S
Zn555       O560   2.004       .  S
Zn555       O563   2.035       .  S
Zn555       O566   2.059       .  S
Zn556       O557   1.896       .  S
Zn556       O564   1.988       .  S
Zn556       O567   2.011       .  S
Zn556       O568   2.010       .  S
O558        C570   1.282       .  A
O559        C571   1.269       .  A
O560        C572   1.277       .  A
O561        C570   1.267       .  A
O562        C572   1.280   1_554  A
O563        C571   1.273       .  A
O564        C573   1.271   1_554  A
O565        C574   1.275       .  A
O566        C573   1.279       .  A
O567        C574   1.275   1_554  A
O568        C575   1.272       .  A
O569        C575   1.277       .  A
C570       C1523   1.473       .  S
C571       C1060   1.495       .  S
C572       C1433   1.489       .  S
C573       C1053   1.474       .  S
C574       C1043   1.487       .  S
C575       C1280   1.479       .  S
Zn576       O580   1.899       .  S
Zn576       O581   2.030       .  S
Zn576       O585   1.968       .  S
Zn576       O592   2.024       .  S
Zn577       O580   1.934       .  S
Zn577       O582   2.008       .  S
Zn577       O584   2.042       .  S
Zn577       O588   2.034       .  S
Zn578       O580   1.948       .  S
Zn578       O583   2.070   1_655  S
Zn578       O586   2.008       .  S
Zn578       O589   2.052       .  S
Zn579       O580   1.882       .  S
Zn579       O587   1.973       .  S
Zn579       O590   1.948       .  S
Zn579       O591   2.002       .  S
O581        C593   1.275       .  A
O582        C594   1.276       .  A
O583        C595   1.280       .  A
O584        C593   1.275       .  A
O585        C595   1.268   1_655  A
O586        C594   1.275       .  A
O587        C596   1.268       .  A
O588        C597   1.274       .  A
O589        C596   1.276       .  A
O590        C597   1.267       .  A
O591        C598   1.273       .  A
O592        C598   1.276       .  A
C593       C1113   1.515       .  S
C594       C1030   1.461       .  S
C595       C1020   1.498       .  S
C596       C1063   1.494       .  S
C597       C1000   1.457       .  S
C598       C1010   1.468       .  S
Zn599       O603   1.928       .  S
Zn599       O604   2.023       .  S
Zn599       O608   2.053       .  S
Zn599       O615   2.040       .  S
Zn600       O603   1.916   1_556  S
Zn600       O605   1.972       .  S
Zn600       O607   1.982   1_556  S
Zn600       O611   1.952       .  S
Zn601       O603   1.932       .  S
Zn601       O606   2.016       .  S
Zn601       O609   2.055   1_554  S
Zn601       O612   2.029   1_554  S
Zn602       O603   1.934   1_556  S
Zn602       O610   2.010       .  S
Zn602       O613   2.035       .  S
Zn602       O614   2.021       .  S
O604        C616   1.275       .  A
O605        C617   1.270       .  A
O606        C618   1.276       .  A
O607        C616   1.268       .  A
O608        C618   1.281       .  A
O609        C617   1.281       .  A
O610        C619   1.276       .  A
O611        C620   1.265       .  A
O612        C619   1.275       .  A
O613        C620   1.275       .  A
O614        C621   1.275       .  A
O615        C621   1.278   1_554  A
C616       C1623   1.468       .  S
C617       C1500   1.484       .  S
C618       C1333   1.493       .  S
C619        C990   1.479       .  S
C620        C980   1.468       .  S
C621       C1050   1.491       .  S
Zn622       O626   1.928       .  S
Zn622       O627   2.031       .  S
Zn622       O631   1.996       .  S
Zn622       O638   2.044       .  S
Zn623       O626   1.963       .  S
Zn623       O628   2.055       .  S
Zn623       O630   2.060       .  S
Zn623       O634   2.093       .  S
Zn624       O626   1.952       .  S
Zn624       O629   2.038   1_545  S
Zn624       O632   1.982       .  S
Zn624       O635   2.024       .  S
Zn625       O626   1.907       .  S
Zn625       O633   1.972       .  S
Zn625       O636   1.939       .  S
Zn625       O637   1.991       .  S
O627        C639   1.276       .  A
O628        C640   1.279       .  A
O629        C641   1.276       .  A
O630        C639   1.281       .  A
O631        C641   1.272   1_545  A
O632        C640   1.269       .  A
O633        C642   1.266       .  A
O634        C643   1.282       .  A
O635        C642   1.272       .  A
O636        C643   1.265       .  A
O637        C644   1.270       .  A
O638        C644   1.278       .  A
C639       C1073   1.494       .  S
C640        C970   1.505       .  S
C641       C1013   1.471       .  S
C642        C983   1.475       .  S
C643        C953   1.478       .  S
C644        C960   1.476   1_655  S
Zn645       O649   1.952   1_556  S
Zn645       O650   1.993       .  S
Zn645       O654   2.044       .  S
Zn645       O661   2.084       .  S
Zn646       O649   1.958       .  S
Zn646       O651   2.064       .  S
Zn646       O653   2.040       .  S
Zn646       O657   2.057       .  S
Zn647       O649   1.908   1_556  S
Zn647       O652   1.971       .  S
Zn647       O655   1.938       .  S
Zn647       O658   2.013       .  S
Zn648       O649   1.899       .  S
Zn648       O656   2.017       .  S
Zn648       O659   2.005       .  S
Zn648       O660   1.951       .  S
O650        C662   1.273       .  A
O651        C663   1.279       .  A
O652        C664   1.267       .  A
O653        C662   1.278   1_554  A
O654        C664   1.276       .  A
O655        C663   1.267   1_556  A
O656        C665   1.275   1_554  A
O657        C666   1.278       .  A
O658        C665   1.271       .  A
O659        C666   1.272       .  A
O660        C667   1.264   1_554  A
O661        C667   1.280       .  A
C662       C1590   1.495       .  S
C663       C1440   1.465       .  S
C664        C943   1.469       .  S
C665        C993   1.478       .  S
C666       C1250   1.495       .  S
C667       C1040   1.506       .  S
Zn668       O672   1.946       .  S
Zn668       O673   2.026       .  S
Zn668       O677   2.071       .  S
Zn668       O684   2.025       .  S
Zn669       O672   1.912       .  S
Zn669       O674   2.001       .  S
Zn669       O676   1.997       .  S
Zn669       O680   2.012       .  S
Zn670       O672   1.904       .  S
Zn670       O675   1.945       .  S
Zn670       O678   1.985       .  S
Zn670       O681   1.977       .  S
Zn671       O672   1.930       .  S
Zn671       O679   2.028       .  S
Zn671       O682   2.052       .  S
Zn671       O683   2.009       .  S
O673        C685   1.275       .  A
O674        C686   1.274       .  A
O675        C687   1.264       .  A
O676        C685   1.269       .  A
O677        C687   1.280       .  A
O678        C686   1.271       .  A
O679        C688   1.275       .  A
O680        C689   1.273       .  A
O681        C688   1.269       .  A
O682        C689   1.279       .  A
O683        C690   1.276       .  A
O684        C690   1.276       .  A
C685        C963   1.496       .  S
C686        C930   1.461       .  S
C687        C940   1.486       .  S
C688        C920   1.478       .  S
C689       C1173   1.479       .  S
C690       C1023   1.490       .  S
Zn691       O695   1.933       .  S
Zn691       O696   2.043       .  S
Zn691       O700   2.064       .  S
Zn691       O707   2.025       .  S
Zn692       O695   1.948       .  S
Zn692       O697   2.034       .  S
Zn692       O699   2.043       .  S
Zn692       O703   2.067       .  S
Zn693       O695   1.923       .  S
Zn693       O698   2.000       .  S
Zn693       O701   1.988       .  S
Zn693       O704   2.015       .  S
Zn694       O695   1.931       .  S
Zn694       O702   1.996       .  S
Zn694       O705   1.968       .  S
Zn694       O706   1.995       .  S
O696        C708   1.279       .  A
O697        C709   1.274       .  A
O698        C710   1.273       .  A
O699        C708   1.280       .  A
O700        C710   1.281       .  A
O701        C709   1.268       .  A
O702        C711   1.273       .  A
O703        C712   1.281       .  A
O704        C711   1.273       .  A
O705        C712   1.266       .  A
O706        C713   1.270       .  A
O707        C713   1.276       .  A
C708        C890   1.488       .  S
C709        C900   1.503       .  S
C710       C1713   1.477       .  S
C711       C1080   1.481       .  S
C712        C910   1.490       .  S
C713       C1213   1.469       .  S
Zn714       O718   1.936       .  S
Zn714       O719   2.114       .  S
Zn714       O723   2.019       .  S
Zn714       O730   2.079       .  S
Zn715       O718   1.859       .  S
Zn715       O720   1.963       .  S
Zn715       O722   1.977       .  S
Zn715       O726   2.014       .  S
Zn716       O718   1.923       .  S
Zn716       O721   1.996       .  S
Zn716       O724   2.042       .  S
Zn716       O727   2.020       .  S
Zn717       O718   1.892       .  S
Zn717       O725   1.992       .  S
Zn717       O728   1.996       .  S
Zn717       O729   1.904       .  S
O719        C731   1.286       .  A
O720        C732   1.271       .  A
O721        C733   1.274       .  A
O722        C731   1.269       .  A
O723        C733   1.274       .  A
O724        C732   1.277       .  A
O725        C734   1.270       .  A
O726        C735   1.274       .  A
O727        C734   1.272       .  A
O728        C735   1.272       .  A
O729        C736   1.257       .  A
O730        C736   1.280       .  A
C731       C1493   1.511       .  S
C732        C880   1.469       .  S
C733       C1003   1.494       .  S
C734        C913   1.472       .  S
C735        C870   1.470       .  S
C736        C933   1.497       .  S
Zn737       O741   1.959       .  S
Zn737       O742   2.069   1_565  S
Zn737       O746   2.038       .  S
Zn737       O753   2.030   1_565  S
Zn738       O741   1.917       .  S
Zn738       O743   1.988       .  S
Zn738       O745   1.946       .  S
Zn738       O749   1.984       .  S
Zn739       O741   1.932       .  S
Zn739       O744   2.034       .  S
Zn739       O747   2.027       .  S
Zn739       O750   2.002       .  S
Zn740       O741   1.945       .  S
Zn740       O748   2.051       .  S
Zn740       O751   2.023       .  S
Zn740       O752   1.983       .  S
O742        C754   1.279   1_545  A
O743        C755   1.270       .  A
O744        C756   1.276       .  A
O745        C754   1.266       .  A
O746        C756   1.277       .  A
O747        C755   1.277       .  A
O748        C757   1.277       .  A
O749        C758   1.267       .  A
O750        C757   1.272       .  A
O751        C758   1.272       .  A
O752        C759   1.274       .  A
O753        C759   1.277   1_545  A
C754        C973   1.468   1_565  S
C755        C883   1.468       .  S
C756       C1423   1.496       .  S
C757        C863   1.475       .  S
C758        C850   1.467       .  S
C759        C923   1.481   1_565  S
Zn760       O764   1.945       .  S
Zn760       O765   2.069       .  S
Zn760       O769   2.036       .  S
Zn760       O776   2.070       .  S
Zn761       O764   1.908       .  S
Zn761       O766   1.997       .  S
Zn761       O768   2.011       .  S
Zn761       O772   2.016       .  S
Zn762       O764   1.933       .  S
Zn762       O767   2.006       .  S
Zn762       O770   2.057       .  S
Zn762       O773   2.021       .  S
Zn763       O764   1.910       .  S
Zn763       O771   1.992       .  S
Zn763       O774   2.006       .  S
Zn763       O775   1.943       .  S
O765        C777   1.280       .  A
O766        C778   1.272       .  A
O767        C779   1.277       .  A
O768        C777   1.273       .  A
O769        C779   1.278       .  A
O770        C778   1.279       .  A
O771        C780   1.269       .  A
O772        C781   1.274       .  A
O773        C780   1.273       .  A
O774        C781   1.273       .  A
O775        C782   1.267       .  A
O776        C782   1.280       .  A
C777       C1643   1.497       .  S
C778        C893   1.478       .  S
C779       C1123   1.475   1_545  S
C780        C853   1.474       .  S
C781        C840   1.475       .  S
C782       C1093   1.465   1_545  S
Zn783       O787   1.907       .  S
Zn783       O788   2.103       .  S
Zn783       O792   2.095       .  S
Zn783       O799   2.035   1_455  S
Zn784       O787   1.864       .  S
Zn784       O789   1.985       .  S
Zn784       O791   1.899       .  S
Zn784       O795   1.969       .  S
Zn785       O787   1.894       .  S
Zn785       O790   2.008       .  S
Zn785       O793   2.061       .  S
Zn785       O796   1.934       .  S
Zn786       O787   1.923       .  S
Zn786       O794   2.090       .  S
Zn786       O797   2.048       .  S
Zn786       O798   2.043       .  S
O788        C800   1.285       .  A
O789        C801   1.267       .  A
O790        C802   1.272       .  A
O791        C800   1.257       .  A
O792        C802   1.283       .  A
O793        C801   1.279       .  A
O794        C803   1.286       .  A
O795        C804   1.265       .  A
O796        C803   1.266       .  A
O797        C804   1.277       .  A
O798        C805   1.283   1_455  A
O799        C805   1.280       .  A
C800       C1033   1.496   1_455  S
C801        C860   1.486       .  S
C802       C1583   1.515       .  S
C803        C873   1.489       .  S
C804        C830   1.491       .  S
C805        C950   1.492       .  S
Zn806       O810   1.939       .  S
Zn806       O811   2.044       .  S
Zn806       O815   2.025       .  S
Zn806       O822   2.056       .  S
Zn807       O810   1.906       .  S
Zn807       O812   1.941       .  S
Zn807       O814   2.020       .  S
Zn807       O818   2.038       .  S
Zn808       O810   1.946       .  S
Zn808       O813   2.002       .  S
Zn808       O816   2.070       .  S
Zn808       O819   2.036       .  S
Zn809       O810   1.906       .  S
Zn809       O817   2.003       .  S
Zn809       O820   2.002       .  S
Zn809       O821   1.959       .  S
O811        C823   1.276       .  A
O812        C824   1.266       .  A
O813        C825   1.274       .  A
O814        C823   1.274       .  A
O815        C825   1.276       .  A
O816        C824   1.279       .  A
O817        C826   1.271       .  A
O818        C827   1.279       .  A
O819        C826   1.275       .  A
O820        C827   1.273       .  A
O821        C828   1.269       .  A
O822        C828   1.278       .  A
C823       C1853   1.500       .  S
C824        C843   1.486       .  S
C825       C1180   1.506   1_655  S
C826        C833   1.481       .  S
C827        C903   1.478       .  S
C828       C1133   1.465   1_655  S
C829        C830   1.412       .  A
C829        C834   1.408       .  A
C829       Br836   1.935       .  S
C830        C831   1.424   1_455  A
C831        C832   1.410       .  A
C831       Br838   1.935       .  S
C832        C833   1.405       .  A
C832       Br837   1.934       .  S
C833        C834   1.411   1_655  A
C834       Br835   1.921       .  S
C839        C840   1.414       .  A
C839        C844   1.415       .  A
C839       Br846   1.931       .  S
C840        C841   1.407       .  A
C841        C842   1.396       .  A
C841       Br848   1.937       .  S
C842        C843   1.418       .  A
C842       Br847   1.940       .  S
C843        C844   1.415       .  A
C844       Br845   1.930       .  S
C849        C850   1.409   1_545  A
C849        C854   1.405       .  A
C849       Br856   1.925       .  S
C850        C851   1.402       .  A
C851        C852   1.406       .  A
C851       Br858   1.931       .  S
C852        C853   1.415   1_565  A
C852       Br857   1.926       .  S
C853        C854   1.407       .  A
C854       Br855   1.931       .  S
C859        C860   1.414       .  A
C859        C864   1.409       .  A
C859       Br866   1.931       .  S
C860        C861   1.418       .  A
C861        C862   1.410       .  A
C861       Br868   1.931       .  S
C862        C863   1.405       .  A
C862       Br867   1.929       .  S
C863        C864   1.404       .  A
C864       Br865   1.925       .  S
C869        C870   1.401       .  A
C869        C874   1.396       .  A
C869       Br876   1.940       .  S
C870        C871   1.413       .  A
C871        C872   1.414       .  A
C871       Br878   1.930       .  S
C872        C873   1.415       .  A
C872       Br877   1.930       .  S
C873        C874   1.425       .  A
C874       Br875   1.937       .  S
C879        C880   1.407       .  A
C879        C884   1.398       .  A
C879       Br886   1.932       .  S
C880        C881   1.409       .  A
C881        C882   1.410       .  A
C881       Br888   1.928       .  S
C882        C883   1.412       .  A
C882       Br887   1.928       .  S
C883        C884   1.406       .  A
C884       Br885   1.926       .  S
C889        C890   1.415       .  A
C889        C894   1.411       .  A
C889       Br896   1.924       .  S
C890        C891   1.412       .  A
C891        C892   1.409       .  A
C891       Br898   1.928       .  S
C892        C893   1.409       .  A
C892       Br897   1.931       .  S
C893        C894   1.407       .  A
C894       Br895   1.930       .  S
C899        C900   1.426       .  A
C899        C904   1.407       .  A
C899       Br906   1.940       .  S
C900        C901   1.421       .  A
C901        C902   1.411       .  A
C901       Br908   1.934       .  S
C902        C903   1.409       .  A
C902       Br907   1.933       .  S
C903        C904   1.404       .  A
C904       Br905   1.930       .  S
C909        C910   1.425       .  A
C909        C914   1.407       .  A
C909       Br916   1.931       .  S
C910        C911   1.412       .  A
C911        C912   1.409       .  A
C911       Br918   1.931       .  S
C912        C913   1.411       .  A
C912       Br917   1.931       .  S
C913        C914   1.401       .  A
C914       Br915   1.935       .  S
C919        C920   1.414       .  A
C919        C924   1.403       .  A
C919       Br926   1.933       .  S
C920        C921   1.412       .  A
C921        C922   1.410       .  A
C921       Br928   1.934       .  S
C922        C923   1.416       .  A
C922       Br927   1.932       .  S
C923        C924   1.413       .  A
C924       Br925   1.940   1_545  S
C929        C930   1.396       .  A
C929        C934   1.398       .  A
C929       Br936   1.942       .  S
C930        C931   1.407       .  A
C931        C932   1.411       .  A
C931       Br938   1.932       .  S
C932        C933   1.420       .  A
C932       Br937   1.932       .  S
C933        C934   1.436       .  A
C934       Br935   1.948       .  S
C939        C940   1.413       .  A
C939        C944   1.409       .  A
C939       Br946   1.932       .  S
C940        C941   1.424       .  A
C941        C942   1.406       .  A
C941       Br948   1.937       .  S
C942        C943   1.400       .  A
C942       Br947   1.932       .  S
C943        C944   1.410       .  A
C944       Br945   1.927       .  S
C949        C950   1.419       .  A
C949        C954   1.414       .  A
C949       Br956   1.928       .  S
C950        C951   1.414       .  A
C951        C952   1.407       .  A
C951       Br958   1.933       .  S
C952        C953   1.411       .  A
C952       Br957   1.935       .  S
C953        C954   1.405       .  A
C954       Br955   1.928       .  S
C959        C960   1.408       .  A
C959        C964   1.409       .  A
C959       Br966   1.930   1_455  S
C960        C961   1.405       .  A
C961        C962   1.409       .  A
C961       Br968   1.935       .  S
C962        C963   1.425       .  A
C962       Br967   1.937       .  S
C963        C964   1.417       .  A
C964       Br965   1.933       .  S
C969        C970   1.426       .  A
C969        C974   1.412       .  A
C969       Br976   1.934       .  S
C970        C971   1.430       .  A
C971        C972   1.407   1_545  A
C971       Br978   1.940   1_545  S
C972        C973   1.400   1_565  A
C972       Br977   1.937       .  S
C973        C974   1.402       .  A
C974       Br975   1.930       .  S
C979        C980   1.412       .  A
C979        C984   1.404       .  A
C979       Br986   1.935       .  S
C980        C981   1.406       .  A
C981        C982   1.406       .  A
C981       Br988   1.932       .  S
C982        C983   1.415       .  A
C982       Br987   1.926       .  S
C983        C984   1.410       .  A
C984       Br985   1.933       .  S
C989        C990   1.411       .  A
C989        C994   1.397       .  A
C989       Br996   1.930   1_556  S
C990        C991   1.411       .  A
C991        C992   1.416       .  A
C991       Br998   1.927       .  S
C992        C993   1.415       .  A
C992       Br997   1.929       .  S
C993        C994   1.406       .  A
C994       Br995   1.932       .  S
C999       C1000   1.399       .  A
C999       C1004   1.403       .  A
C999      Br1006   1.933       .  S
C1000      C1001   1.399       .  A
C1001      C1002   1.407       .  A
C1001     Br1008   1.930       .  S
C1002      C1003   1.426       .  A
C1002     Br1007   1.935       .  S
C1003      C1004   1.426       .  A
C1004     Br1005   1.937       .  S
C1009      C1010   1.408       .  A
C1009      C1014   1.409       .  A
C1009     Br1016   1.927       .  S
C1010      C1011   1.407       .  A
C1011      C1012   1.403       .  A
C1011     Br1018   1.932       .  S
C1012      C1013   1.407       .  A
C1012     Br1017   1.926       .  S
C1013      C1014   1.409       .  A
C1014     Br1015   1.928       .  S
C1019      C1020   1.417       .  A
C1019      C1024   1.416       .  A
C1019     Br1026   1.931       .  S
C1020      C1021   1.421       .  A
C1021      C1022   1.401       .  A
C1021     Br1028   1.940       .  S
C1022      C1023   1.411   1_565  A
C1022     Br1027   1.940   1_565  S
C1023      C1024   1.418   1_545  A
C1024     Br1025   1.933       .  S
C1029      C1030   1.407       .  A
C1029      C1034   1.414       .  A
C1029     Br1036   1.928       .  S
C1030      C1031   1.393       .  A
C1031      C1032   1.395   1_655  A
C1031     Br1038   1.940   1_655  S
C1032      C1033   1.437   1_455  A
C1032     Br1037   1.950       .  S
C1033      C1034   1.419       .  A
C1034     Br1035   1.930       .  S
C1039      C1040   1.421       .  A
C1039      C1044   1.420       .  A
C1039     Br1046   1.931       .  S
C1040      C1041   1.425   1_556  A
C1041      C1042   1.396       .  A
C1041     Br1048   1.944       .  S
C1042      C1043   1.408   1_554  A
C1042     Br1047   1.940       .  S
C1043      C1044   1.416       .  A
C1044     Br1045   1.932       .  S
C1049      C1050   1.418   1_554  A
C1049      C1054   1.408       .  A
C1049     Br1056   1.933       .  S
C1050      C1051   1.420       .  A
C1051      C1052   1.410       .  A
C1051     Br1058   1.933       .  S
C1052      C1053   1.405       .  A
C1052     Br1057   1.931       .  S
C1053      C1054   1.405   1_556  A
C1054     Br1055   1.927       .  S
C1059      C1060   1.421       .  A
C1059      C1064   1.413       .  A
C1059     Br1066   1.937       .  S
C1060      C1061   1.416       .  A
C1061      C1062   1.407       .  A
C1061     Br1068   1.939       .  S
C1062      C1063   1.417       .  A
C1062     Br1067   1.939       .  S
C1063      C1064   1.417       .  A
C1064     Br1065   1.937       .  S
C1069      C1070   1.415       .  A
C1069      C1074   1.415       .  A
C1069     Br1076   1.934       .  S
C1070      C1071   1.424   1_565  A
C1071      C1072   1.414       .  A
C1071     Br1078   1.936       .  S
C1072      C1073   1.408       .  A
C1072     Br1077   1.933       .  S
C1073      C1074   1.416   1_545  A
C1074     Br1075   1.930       .  S
C1079      C1080   1.407       .  A
C1079      C1084   1.405       .  A
C1079     Br1086   1.937       .  S
C1080      C1081   1.415       .  A
C1081      C1082   1.412       .  A
C1081     Br1088   1.935       .  S
C1082      C1083   1.418       .  A
C1082     Br1087   1.935       .  S
C1083      C1084   1.425       .  A
C1084     Br1085   1.940       .  S
C1089      C1090   1.419       .  A
C1089      C1094   1.409       .  A
C1089     Br1096   1.932       .  S
C1090      C1091   1.417   1_565  A
C1091      C1092   1.405       .  A
C1091     Br1098   1.933       .  S
C1092      C1093   1.405   1_545  A
C1092     Br1097   1.930       .  S
C1093      C1094   1.404       .  A
C1094     Br1095   1.928       .  S
C1099      C1100   1.420       .  A
C1099      C1104   1.407       .  A
C1099     Br1106   1.933       .  S
C1100      C1101   1.409       .  A
C1101      C1102   1.405       .  A
C1101     Br1108   1.935       .  S
C1102      C1103   1.415       .  A
C1102     Br1107   1.931       .  S
C1103      C1104   1.406       .  A
C1104     Br1105   1.934       .  S
C1109      C1110   1.409   1_655  A
C1109      C1114   1.415       .  A
C1109     Br1116   1.937   1_655  S
C1110      C1111   1.409   1_455  A
C1111      C1112   1.414       .  A
C1111     Br1118   1.933       .  S
C1112      C1113   1.426       .  A
C1112     Br1117   1.937       .  S
C1113      C1114   1.428       .  A
C1114     Br1115   1.934       .  S
C1119      C1120   1.414       .  A
C1119      C1124   1.402       .  A
C1119     Br1126   1.926       .  S
C1120      C1121   1.409       .  A
C1121      C1122   1.412       .  A
C1121     Br1128   1.929       .  S
C1122      C1123   1.413       .  A
C1122     Br1127   1.926       .  S
C1123      C1124   1.404       .  A
C1124     Br1125   1.936   1_565  S
C1129      C1130   1.421       .  A
C1129      C1134   1.406       .  A
C1129     Br1136   1.933       .  S
C1130      C1131   1.418   1_455  A
C1131      C1132   1.409       .  A
C1131     Br1138   1.931       .  S
C1132      C1133   1.403   1_655  A
C1132     Br1137   1.928       .  S
C1133      C1134   1.401       .  A
C1134     Br1135   1.930       .  S
C1139      C1140   1.405       .  A
C1139      C1144   1.408       .  A
C1139     Br1146   1.936       .  S
C1140      C1141   1.410       .  A
C1141      C1142   1.416       .  A
C1141     Br1148   1.931       .  S
C1142      C1143   1.419       .  A
C1142     Br1147   1.931       .  S
C1143      C1144   1.428       .  A
C1144     Br1145   1.937   1_655  S
C1149      C1150   1.409       .  A
C1149      C1154   1.406       .  A
C1149     Br1156   1.935       .  S
C1150      C1151   1.413       .  A
C1151      C1152   1.413       .  A
C1151     Br1158   1.932       .  S
C1152      C1153   1.414       .  A
C1152     Br1157   1.930       .  S
C1153      C1154   1.417       .  A
C1154     Br1155   1.932       .  S
C1159      C1160   1.397       .  A
C1159      C1164   1.405       .  A
C1159     Br1166   1.935       .  S
C1160      C1161   1.407       .  A
C1161      C1162   1.407       .  A
C1161     Br1168   1.926       .  S
C1162      C1163   1.416       .  A
C1162     Br1167   1.933       .  S
C1163      C1164   1.431       .  A
C1164     Br1165   1.939       .  S
C1169      C1170   1.415       .  A
C1169      C1174   1.412       .  A
C1169     Br1176   1.931       .  S
C1170      C1171   1.415       .  A
C1171      C1172   1.410       .  A
C1171     Br1178   1.917       .  S
C1172      C1173   1.405       .  A
C1172     Br1177   1.931       .  S
C1173      C1174   1.409       .  A
C1174     Br1175   1.929       .  S
C1179      C1180   1.432       .  A
C1179      C1184   1.405       .  A
C1179     Br1186   1.940   1_455  S
C1180      C1181   1.431       .  A
C1181      C1182   1.410       .  A
C1181     Br1188   1.937       .  S
C1182      C1183   1.399       .  A
C1182     Br1187   1.932       .  S
C1183      C1184   1.399       .  A
C1184     Br1185   1.938       .  S
C1189      C1190   1.412       .  A
C1189      C1194   1.418       .  A
C1189     Br1196   1.932       .  S
C1190      C1191   1.414       .  A
C1191      C1192   1.399       .  A
C1191     Br1198   1.943       .  S
C1192      C1193   1.418       .  A
C1192     Br1197   1.939   1_545  S
C1193      C1194   1.425       .  A
C1194     Br1195   1.934       .  S
C1199      C1200   1.407       .  A
C1199      C1204   1.402       .  A
C1199     Br1206   1.936       .  S
C1200      C1201   1.407       .  A
C1201      C1202   1.415       .  A
C1201     Br1208   1.926       .  S
C1202      C1203   1.417       .  A
C1202     Br1207   1.930       .  S
C1203      C1204   1.414       .  A
C1204     Br1205   1.935   1_655  S
C1209      C1210   1.415       .  A
C1209      C1214   1.415       .  A
C1209     Br1216   1.928       .  S
C1210      C1211   1.404       .  A
C1211      C1212   1.396       .  A
C1211     Br1218   1.921       .  S
C1212      C1213   1.406       .  A
C1212     Br1217   1.935       .  S
C1213      C1214   1.407       .  A
C1214     Br1215   1.925       .  S
C1219      C1220   1.409       .  A
C1219      C1224   1.409       .  A
C1219     Br1226   1.926       .  S
C1220      C1221   1.410       .  A
C1221      C1222   1.408       .  A
C1221     Br1228   1.930       .  S
C1222      C1223   1.408       .  A
C1222     Br1227   1.929       .  S
C1223      C1224   1.408       .  A
C1224     Br1225   1.929       .  S
C1229      C1230   1.413       .  A
C1229      C1234   1.415       .  A
C1229     Br1236   1.932       .  S
C1230      C1231   1.420       .  A
C1231      C1232   1.403       .  A
C1231     Br1238   1.942       .  S
C1232      C1233   1.416       .  A
C1232     Br1237   1.942       .  S
C1233      C1234   1.421       .  A
C1234     Br1235   1.933       .  S
C1239      C1240   1.421       .  A
C1239      C1244   1.409       .  A
C1239     Br1246   1.940       .  S
C1240      C1241   1.422       .  A
C1241      C1242   1.414       .  A
C1241     Br1248   1.937       .  S
C1242      C1243   1.415       .  A
C1242     Br1247   1.931       .  S
C1243      C1244   1.414       .  A
C1244     Br1245   1.939       .  S
C1249      C1250   1.417       .  A
C1249      C1254   1.411       .  A
C1249     Br1256   1.932       .  S
C1250      C1251   1.419       .  A
C1251      C1252   1.413       .  A
C1251     Br1258   1.932       .  S
C1252      C1253   1.408       .  A
C1252     Br1257   1.930       .  S
C1253      C1254   1.408       .  A
C1254     Br1255   1.930       .  S
C1259      C1260   1.405       .  A
C1259      C1264   1.410       .  A
C1259     Br1266   1.930       .  S
C1260      C1261   1.413       .  A
C1261      C1262   1.414       .  A
C1261     Br1268   1.929       .  S
C1262      C1263   1.411       .  A
C1262     Br1267   1.928       .  S
C1263      C1264   1.415       .  A
C1264     Br1265   1.923       .  S
C1269      C1270   1.413       .  A
C1269      C1274   1.413       .  A
C1269     Br1276   1.927       .  S
C1270      C1271   1.404       .  A
C1271      C1272   1.406       .  A
C1271     Br1278   1.934       .  S
C1272      C1273   1.423       .  A
C1272     Br1277   1.938       .  S
C1273      C1274   1.413       .  A
C1274     Br1275   1.931       .  S
C1279      C1280   1.410       .  A
C1279      C1284   1.412       .  A
C1279     Br1286   1.926       .  S
C1280      C1281   1.404       .  A
C1281      C1282   1.409       .  A
C1281     Br1288   1.931       .  S
C1282      C1283   1.420       .  A
C1282     Br1287   1.932       .  S
C1283      C1284   1.411       .  A
C1284     Br1285   1.929       .  S
C1289      C1290   1.420       .  A
C1289      C1294   1.411       .  A
C1289     Br1296   1.931       .  S
C1290      C1291   1.415       .  A
C1291      C1292   1.404       .  A
C1291     Br1298   1.935       .  S
C1292      C1293   1.409       .  A
C1292     Br1297   1.937       .  S
C1293      C1294   1.403       .  A
C1294     Br1295   1.928       .  S
C1299      C1300   1.412       .  A
C1299      C1304   1.415       .  A
C1299     Br1306   1.934       .  S
C1300      C1301   1.409       .  A
C1301      C1302   1.413       .  A
C1301     Br1308   1.935       .  S
C1302      C1303   1.425       .  A
C1302     Br1307   1.937       .  S
C1303      C1304   1.422       .  A
C1304     Br1305   1.935       .  S
C1309      C1310   1.414   1_655  A
C1309      C1314   1.405       .  A
C1309     Br1316   1.928       .  S
C1310      C1311   1.408       .  A
C1311      C1312   1.406   1_455  A
C1311     Br1318   1.931       .  S
C1312      C1313   1.413       .  A
C1312     Br1317   1.933   1_655  S
C1313      C1314   1.406       .  A
C1314     Br1315   1.933       .  S
C1319      C1320   1.416       .  A
C1319      C1324   1.410       .  A
C1319     Br1326   1.931       .  S
C1320      C1321   1.417       .  A
C1321      C1322   1.410       .  A
C1321     Br1328   1.932       .  S
C1322      C1323   1.407       .  A
C1322     Br1327   1.931       .  S
C1323      C1324   1.405       .  A
C1324     Br1325   1.926       .  S
C1329      C1330   1.411       .  A
C1329      C1334   1.412       .  A
C1329     Br1336   1.932       .  S
C1330      C1331   1.412       .  A
C1331      C1332   1.412       .  A
C1331     Br1338   1.933       .  S
C1332      C1333   1.416       .  A
C1332     Br1337   1.934       .  S
C1333      C1334   1.417       .  A
C1334     Br1335   1.934       .  S
C1339      C1340   1.424       .  A
C1339      C1344   1.407       .  A
C1339     Br1346   1.931       .  S
C1340      C1341   1.421       .  A
C1341      C1342   1.414       .  A
C1341     Br1348   1.933       .  S
C1342      C1343   1.409       .  A
C1342     Br1347   1.929       .  S
C1343      C1344   1.405       .  A
C1344     Br1345   1.937       .  S
C1349      C1350   1.418       .  A
C1349      C1354   1.413       .  A
C1349     Br1356   1.937       .  S
C1350      C1351   1.412       .  A
C1351      C1352   1.414       .  A
C1351     Br1358   1.935       .  S
C1352      C1353   1.424       .  A
C1352     Br1357   1.935       .  S
C1353      C1354   1.423       .  A
C1354     Br1355   1.941       .  S
C1359      C1360   1.412       .  A
C1359      C1364   1.411       .  A
C1359     Br1366   1.926       .  S
C1360      C1361   1.404       .  A
C1361      C1362   1.410       .  A
C1361     Br1368   1.930       .  S
C1362      C1363   1.420       .  A
C1362     Br1367   1.934       .  S
C1363      C1364   1.410       .  A
C1364     Br1365   1.930       .  S
C1369      C1370   1.410       .  A
C1369      C1374   1.402       .  A
C1369     Br1376   1.936       .  S
C1370      C1371   1.415       .  A
C1371      C1372   1.414       .  A
C1371     Br1378   1.930       .  S
C1372      C1373   1.409       .  A
C1372     Br1377   1.927       .  S
C1373      C1374   1.411       .  A
C1374     Br1375   1.931       .  S
C1379      C1380   1.413       .  A
C1379      C1384   1.401       .  A
C1379     Br1386   1.937       .  S
C1380      C1381   1.408       .  A
C1381      C1382   1.413       .  A
C1381     Br1388   1.932       .  S
C1382      C1383   1.423       .  A
C1382     Br1387   1.934       .  S
C1383      C1384   1.417       .  A
C1384     Br1385   1.940       .  S
C1389      C1390   1.409       .  A
C1389      C1394   1.410       .  A
C1389     Br1396   1.932       .  S
C1390      C1391   1.416   1_545  A
C1391      C1392   1.407       .  A
C1391     Br1398   1.936       .  S
C1392      C1393   1.410       .  A
C1392     Br1397   1.934       .  S
C1393      C1394   1.416   1_565  A
C1394     Br1395   1.928       .  S
C1399      C1400   1.424       .  A
C1399      C1404   1.404       .  A
C1399     Br1406   1.941       .  S
C1400      C1401   1.414       .  A
C1401      C1402   1.407       .  A
C1401     Br1408   1.934       .  S
C1402      C1403   1.409       .  A
C1402     Br1407   1.931   1_455  S
C1403      C1404   1.406       .  A
C1404     Br1405   1.938       .  S
C1409      C1410   1.409       .  A
C1409      C1414   1.399       .  A
C1409     Br1416   1.921       .  S
C1410      C1411   1.405   1_545  A
C1411      C1412   1.410       .  A
C1411     Br1418   1.933       .  S
C1412      C1413   1.428       .  A
C1412     Br1417   1.938       .  S
C1413      C1414   1.413   1_565  A
C1414     Br1415   1.942       .  S
C1419      C1420   1.423       .  A
C1419      C1424   1.413       .  A
C1419     Br1426   1.940       .  S
C1420      C1421   1.429       .  A
C1421      C1422   1.415       .  A
C1421     Br1428   1.934       .  S
C1422      C1423   1.409       .  A
C1422     Br1427   1.937       .  S
C1423      C1424   1.413       .  A
C1424     Br1425   1.931       .  S
C1429      C1430   1.413       .  A
C1429      C1434   1.406       .  A
C1429     Br1436   1.932       .  S
C1430      C1431   1.410       .  A
C1431      C1432   1.411       .  A
C1431     Br1438   1.933       .  S
C1432      C1433   1.418   1_455  A
C1432     Br1437   1.933   1_455  S
C1433      C1434   1.416   1_655  A
C1434     Br1435   1.939       .  S
C1439      C1440   1.406       .  A
C1439      C1444   1.408       .  A
C1439     Br1446   1.928       .  S
C1440      C1441   1.409   1_554  A
C1441      C1442   1.403       .  A
C1441     Br1448   1.932       .  S
C1442      C1443   1.408   1_546  A
C1442     Br1447   1.931   1_545  S
C1443      C1444   1.412   1_565  A
C1444     Br1445   1.930   1_545  S
C1449      C1450   1.419       .  A
C1449      C1454   1.408       .  A
C1449     Br1456   1.938       .  S
C1450      C1451   1.410       .  A
C1451      C1452   1.409       .  A
C1451     Br1458   1.933       .  S
C1452      C1453   1.415       .  A
C1452     Br1457   1.927       .  S
C1453      C1454   1.411       .  A
C1454     Br1455   1.935       .  S
C1459      C1460   1.404       .  A
C1459      C1464   1.406       .  A
C1459     Br1466   1.931       .  S
C1460      C1461   1.398       .  A
C1461      C1462   1.415       .  A
C1461     Br1468   1.931       .  S
C1462      C1463   1.436       .  A
C1462     Br1467   1.936       .  S
C1463      C1464   1.426       .  A
C1464     Br1465   1.939   1_565  S
C1469      C1470   1.406       .  A
C1469      C1474   1.408       .  A
C1469     Br1476   1.926       .  S
C1470      C1471   1.408       .  A
C1471      C1472   1.406       .  A
C1471     Br1478   1.932       .  S
C1472      C1473   1.412       .  A
C1472     Br1477   1.931   1_655  S
C1473      C1474   1.412       .  A
C1474     Br1475   1.930       .  S
C1479      C1480   1.420       .  A
C1479      C1484   1.413       .  A
C1479     Br1486   1.935       .  S
C1480      C1481   1.420       .  A
C1481      C1482   1.407       .  A
C1481     Br1488   1.942       .  S
C1482      C1483   1.416       .  A
C1482     Br1487   1.939       .  S
C1483      C1484   1.414       .  A
C1484     Br1485   1.936       .  S
C1489      C1490   1.420       .  A
C1489      C1494   1.412       .  A
C1489     Br1496   1.940       .  S
C1490      C1491   1.428       .  A
C1491      C1492   1.422       .  A
C1491     Br1498   1.935       .  S
C1492      C1493   1.416       .  A
C1492     Br1497   1.934       .  S
C1493      C1494   1.422       .  A
C1494     Br1495   1.941       .  S
C1499      C1500   1.417   1_565  A
C1499      C1504   1.408       .  A
C1499     Br1506   1.930   1_565  S
C1500      C1501   1.418   1_546  A
C1501      C1502   1.406   1_554  A
C1501     Br1508   1.933   1_565  S
C1502      C1503   1.401       .  A
C1502     Br1507   1.924   1_556  S
C1503      C1504   1.403       .  A
C1504     Br1505   1.927       .  S
C1509      C1510   1.422       .  A
C1509      C1514   1.411   1_554  A
C1509     Br1516   1.927   1_554  S
C1510      C1511   1.421       .  A
C1511      C1512   1.413       .  A
C1511     Br1518   1.935       .  S
C1512      C1513   1.412       .  A
C1512     Br1517   1.934       .  S
C1513      C1514   1.405   1_554  A
C1514     Br1515   1.930       .  S
C1519      C1520   1.427       .  A
C1519      C1524   1.408       .  A
C1519     Br1526   1.938       .  S
C1520      C1521   1.429       .  A
C1521      C1522   1.413       .  A
C1521     Br1528   1.935       .  S
C1522      C1523   1.402       .  A
C1522     Br1527   1.931       .  S
C1523      C1524   1.404       .  A
C1524     Br1525   1.937       .  S
C1529      C1530   1.409       .  A
C1529      C1534   1.406       .  A
C1529     Br1536   1.930       .  S
C1530      C1531   1.400       .  A
C1531      C1532   1.404       .  A
C1531     Br1538   1.933       .  S
C1532      C1533   1.419       .  A
C1532     Br1537   1.926       .  S
C1533      C1534   1.411       .  A
C1534     Br1535   1.932       .  S
C1539      C1540   1.400       .  A
C1539      C1544   1.408       .  A
C1539     Br1546   1.932       .  S
C1540      C1541   1.403       .  A
C1541      C1542   1.403       .  A
C1541     Br1548   1.936       .  S
C1542      C1543   1.422       .  A
C1542     Br1547   1.937       .  S
C1543      C1544   1.426       .  A
C1544     Br1545   1.935       .  S
C1549      C1550   1.412       .  A
C1549      C1554   1.401       .  A
C1549     Br1556   1.936       .  S
C1550      C1551   1.416       .  A
C1551      C1552   1.413       .  A
C1551     Br1558   1.931       .  S
C1552      C1553   1.408       .  A
C1552     Br1557   1.927       .  S
C1553      C1554   1.409       .  A
C1554     Br1555   1.934       .  S
C1559      C1560   1.409       .  A
C1559      C1564   1.403       .  A
C1559     Br1566   1.940       .  S
C1560      C1561   1.404       .  A
C1561      C1562   1.412       .  A
C1561     Br1568   1.931       .  S
C1562      C1563   1.425       .  A
C1562     Br1567   1.934       .  S
C1563      C1564   1.419       .  A
C1564     Br1565   1.937       .  S
C1569      C1570   1.406   1_455  A
C1569      C1574   1.412       .  A
C1569     Br1576   1.926       .  S
C1570      C1571   1.409       .  A
C1571      C1572   1.397       .  A
C1571     Br1578   1.932       .  S
C1572      C1573   1.404   1_655  A
C1572     Br1577   1.929       .  S
C1573      C1574   1.413       .  A
C1574     Br1575   1.928       .  S
C1579      C1580   1.410       .  A
C1579      C1584   1.415       .  A
C1579     Br1586   1.936       .  S
C1580      C1581   1.418       .  A
C1581      C1582   1.419       .  A
C1581     Br1588   1.926       .  S
C1582      C1583   1.418       .  A
C1582     Br1587   1.933       .  S
C1583      C1584   1.429       .  A
C1584     Br1585   1.938       .  S
C1589      C1590   1.425       .  A
C1589      C1594   1.413       .  A
C1589     Br1596   1.933   1_556  S
C1590      C1591   1.421       .  A
C1591      C1592   1.404       .  A
C1591     Br1598   1.938       .  S
C1592      C1593   1.406       .  A
C1592     Br1597   1.936       .  S
C1593      C1594   1.403       .  A
C1594     Br1595   1.929       .  S
C1599      C1600   1.425       .  A
C1599      C1604   1.414       .  A
C1599     Br1606   1.934       .  S
C1600      C1601   1.421   1_554  A
C1601      C1602   1.402       .  A
C1601     Br1608   1.940       .  S
C1602      C1603   1.412   1_556  A
C1602     Br1607   1.941       .  S
C1603      C1604   1.408       .  A
C1604     Br1605   1.931       .  S
C1609      C1610   1.412       .  A
C1609      C1614   1.416       .  A
C1609     Br1616   1.928       .  S
C1610      C1611   1.405       .  A
C1611      C1612   1.402       .  A
C1611     Br1618   1.936       .  S
C1612      C1613   1.420       .  A
C1612     Br1617   1.935       .  S
C1613      C1614   1.415       .  A
C1614     Br1615   1.929       .  S
C1619      C1620   1.413       .  A
C1619      C1624   1.411       .  A
C1619     Br1626   1.929   1_655  S
C1620      C1621   1.407       .  A
C1621      C1622   1.397       .  A
C1621     Br1628   1.931   1_554  S
C1622      C1623   1.408       .  A
C1622     Br1627   1.931   1_554  S
C1623      C1624   1.408       .  A
C1624     Br1625   1.927       .  S
C1629      C1630   1.424       .  A
C1629      C1634   1.407       .  A
C1629     Br1636   1.942       .  S
C1630      C1631   1.424       .  A
C1631      C1632   1.414       .  A
C1631     Br1638   1.937       .  S
C1632      C1633   1.416       .  A
C1632     Br1637   1.937       .  S
C1633      C1634   1.413       .  A
C1634     Br1635   1.940       .  S
C1639      C1640   1.406       .  A
C1639      C1644   1.412       .  A
C1639     Br1646   1.931       .  S
C1640      C1641   1.414       .  A
C1641      C1642   1.415       .  A
C1641     Br1648   1.931       .  S
C1642      C1643   1.414       .  A
C1642     Br1647   1.930       .  S
C1643      C1644   1.420       .  A
C1644     Br1645   1.932       .  S
C1649      C1650   1.425       .  A
C1649      C1654   1.409       .  A
C1649     Br1656   1.934       .  S
C1650      C1651   1.425       .  A
C1651      C1652   1.406       .  A
C1651     Br1658   1.936       .  S
C1652      C1653   1.401       .  A
C1652     Br1657   1.934       .  S
C1653      C1654   1.400       .  A
C1654     Br1655   1.930       .  S
C1659      C1660   1.425   1_565  A
C1659      C1664   1.411       .  A
C1659     Br1666   1.933   1_565  S
C1660      C1661   1.424   1_545  A
C1661      C1662   1.409       .  A
C1661     Br1668   1.935   1_565  S
C1662      C1663   1.402       .  A
C1662     Br1667   1.925       .  S
C1663      C1664   1.402       .  A
C1664     Br1665   1.929       .  S
C1669      C1670   1.410       .  A
C1669      C1674   1.411       .  A
C1669     Br1676   1.932       .  S
C1670      C1671   1.412       .  A
C1671      C1672   1.415   1_545  A
C1671     Br1678   1.931       .  S
C1672      C1673   1.417       .  A
C1672     Br1677   1.931       .  S
C1673      C1674   1.419   1_565  A
C1674     Br1675   1.935   1_545  S
C1679      C1680   1.411       .  A
C1679      C1684   1.411       .  A
C1679     Br1686   1.936       .  S
C1680      C1681   1.417       .  A
C1681      C1682   1.406       .  A
C1681     Br1688   1.937       .  S
C1682      C1683   1.418       .  A
C1682     Br1687   1.938       .  S
C1683      C1684   1.425       .  A
C1684     Br1685   1.938       .  S
C1689      C1690   1.409       .  A
C1689      C1694   1.402       .  A
C1689     Br1696   1.931       .  S
C1690      C1691   1.413       .  A
C1691      C1692   1.408       .  A
C1691     Br1698   1.930       .  S
C1692      C1693   1.406       .  A
C1692     Br1697   1.928   1_545  S
C1693      C1694   1.409       .  A
C1694     Br1695   1.934       .  S
C1699      C1700   1.405       .  A
C1699      C1704   1.411       .  A
C1699     Br1706   1.935       .  S
C1700      C1701   1.396       .  A
C1701      C1702   1.408       .  A
C1701     Br1708   1.937       .  S
C1702      C1703   1.436       .  A
C1702     Br1707   1.938       .  S
C1703      C1704   1.426       .  A
C1704     Br1705   1.936       .  S
C1709      C1710   1.413       .  A
C1709      C1714   1.411       .  A
C1709     Br1716   1.925       .  S
C1710      C1711   1.412       .  A
C1711      C1712   1.410       .  A
C1711     Br1718   1.930       .  S
C1712      C1713   1.410       .  A
C1712     Br1717   1.931       .  S
C1713      C1714   1.407       .  A
C1714     Br1715   1.929       .  S
C1719      C1720   1.400       .  A
C1719      C1724   1.410       .  A
C1719     Br1726   1.931       .  S
C1720      C1721   1.402       .  A
C1721      C1722   1.411       .  A
C1721     Br1728   1.927       .  S
C1722      C1723   1.424   1_655  A
C1722     Br1727   1.933   1_655  S
C1723      C1724   1.428   1_455  A
C1724     Br1725   1.935   1_655  S
C1729      C1730   1.409       .  A
C1729      C1734   1.408       .  A
C1729     Br1736   1.928       .  S
C1730      C1731   1.410       .  A
C1731      C1732   1.411       .  A
C1731     Br1738   1.928       .  S
C1732      C1733   1.409       .  A
C1732     Br1737   1.920       .  S
C1733      C1734   1.408       .  A
C1734     Br1735   1.930       .  S
C1739      C1740   1.416       .  A
C1739      C1744   1.411       .  A
C1739     Br1746   1.929       .  S
C1740      C1741   1.404       .  A
C1741      C1742   1.402       .  A
C1741     Br1748   1.927       .  S
C1742      C1743   1.414       .  A
C1742     Br1747   1.934       .  S
C1743      C1744   1.405       .  A
C1744     Br1745   1.927       .  S
C1749      C1750   1.404       .  A
C1749      C1754   1.408       .  A
C1749     Br1756   1.930       .  S
C1750      C1751   1.412       .  A
C1751      C1752   1.412       .  A
C1751     Br1758   1.927       .  S
C1752      C1753   1.409       .  A
C1752     Br1757   1.929       .  S
C1753      C1754   1.415       .  A
C1754     Br1755   1.925       .  S
C1759      C1760   1.405       .  A
C1759      C1764   1.406       .  A
C1759     Br1766   1.932       .  S
C1760      C1761   1.404       .  A
C1761      C1762   1.405       .  A
C1761     Br1768   1.931       .  S
C1762      C1763   1.417       .  A
C1762     Br1767   1.934   1_655  S
C1763      C1764   1.417       .  A
C1764     Br1765   1.934       .  S
C1769      C1770   1.429       .  A
C1769      C1774   1.414       .  A
C1769     Br1776   1.933       .  S
C1770      C1771   1.427       .  A
C1771      C1772   1.406       .  A
C1771     Br1778   1.939       .  S
C1772      C1773   1.402       .  A
C1772     Br1777   1.932       .  S
C1773      C1774   1.402       .  A
C1774     Br1775   1.930       .  S
C1779      C1780   1.404       .  A
C1779      C1784   1.407       .  A
C1779     Br1786   1.935       .  S
C1780      C1781   1.411       .  A
C1781      C1782   1.407       .  A
C1781     Br1788   1.929       .  S
C1782      C1783   1.413       .  A
C1782     Br1787   1.935       .  S
C1783      C1784   1.421       .  A
C1784     Br1785   1.930       .  S
C1789      C1790   1.419   1_455  A
C1789      C1794   1.414       .  A
C1789     Br1796   1.932       .  S
C1790      C1791   1.415   1_655  A
C1791      C1792   1.406       .  A
C1791     Br1798   1.936   1_455  S
C1792      C1793   1.411       .  A
C1792     Br1797   1.933   1_565  S
C1793      C1794   1.407       .  A
C1794     Br1795   1.928       .  S
C1799      C1800   1.405       .  A
C1799      C1804   1.410       .  A
C1799     Br1806   1.933       .  S
C1800      C1801   1.406   1_655  A
C1801      C1802   1.410       .  A
C1801     Br1808   1.933       .  S
C1802      C1803   1.420       .  A
C1802     Br1807   1.934       .  S
C1803      C1804   1.420   1_455  A
C1804     Br1805   1.928       .  S
C1809      C1810   1.414       .  A
C1809      C1814   1.411       .  A
C1809     Br1816   1.929       .  S
C1810      C1811   1.406       .  A
C1811      C1812   1.398       .  A
C1811     Br1818   1.926   1_545  S
C1812      C1813   1.408       .  A
C1812     Br1817   1.933       .  S
C1813      C1814   1.407       .  A
C1814     Br1815   1.927       .  S
C1819      C1820   1.402       .  A
C1819      C1824   1.408       .  A
C1819     Br1826   1.928       .  S
C1820      C1821   1.410   1_655  A
C1821      C1822   1.401       .  A
C1821     Br1828   1.933       .  S
C1822      C1823   1.409   1_455  A
C1822     Br1827   1.935       .  S
C1823      C1824   1.419       .  A
C1824     Br1825   1.932       .  S
C1829      C1830   1.405       .  A
C1829      C1834   1.409       .  A
C1829     Br1836   1.927       .  S
C1830      C1831   1.406       .  A
C1831      C1832   1.404       .  A
C1831     Br1838   1.933       .  S
C1832      C1833   1.413   1_565  A
C1832     Br1837   1.930   1_565  S
C1833      C1834   1.415   1_545  A
C1834     Br1835   1.928       .  S
C1839      C1840   1.413       .  A
C1839      C1844   1.409       .  A
C1839     Br1846   1.935       .  S
C1840      C1841   1.410       .  A
C1841      C1842   1.411       .  A
C1841     Br1848   1.936       .  S
C1842      C1843   1.426       .  A
C1842     Br1847   1.938       .  S
C1843      C1844   1.418       .  A
C1844     Br1845   1.935       .  S
C1849      C1850   1.409       .  A
C1849      C1854   1.412       .  A
C1849     Br1856   1.933       .  S
C1850      C1851   1.406       .  A
C1851      C1852   1.413       .  A
C1851     Br1858   1.932       .  S
C1852      C1853   1.422       .  A
C1852     Br1857   1.934       .  S
C1853      C1854   1.419       .  A
C1854     Br1855   1.933       .  S
C1859      C1860   1.405       .  A
C1859      C1864   1.398       .  A
C1859     Br1866   1.935       .  S
C1860      C1861   1.418       .  A
C1861      C1862   1.410       .  A
C1861     Br1868   1.928   1_545  S
C1862      C1863   1.402       .  A
C1862     Br1867   1.927       .  S
C1863      C1864   1.409       .  A
C1864     Br1865   1.928       .  S
C1869      C1870   1.419       .  A
C1869      C1874   1.417       .  A
C1869     Br1876   1.932       .  S
C1870      C1871   1.416       .  A
C1871      C1872   1.407       .  A
C1871     Br1878   1.946       .  S
C1872      C1873   1.428       .  A
C1872     Br1877   1.948       .  S
C1873      C1874   1.417       .  A
C1874     Br1875   1.935       .  S
C1879      C1880   1.408       .  A
C1879      C1884   1.400       .  A
C1879     Br1886   1.938       .  S
C1880      C1881   1.415       .  A
C1881      C1882   1.414       .  A
C1881     Br1888   1.931       .  S
C1882      C1883   1.411       .  A
C1882     Br1887   1.929       .  S
C1883      C1884   1.415       .  A
C1884     Br1885   1.927       .  S
C1889      C1890   1.403       .  A
C1889      C1894   1.407       .  A
C1889     Br1896   1.929       .  S
C1890      C1891   1.401       .  A
C1891      C1892   1.404       .  A
C1891     Br1898   1.930       .  S
C1892      C1893   1.418   1_455  A
C1892     Br1897   1.934   1_455  S
C1893      C1894   1.417   1_655  A
C1894     Br1895   1.932   1_455  S
C1899      C1900   1.417       .  A
C1899      C1904   1.408       .  A
C1899     Br1906   1.936       .  S
C1900      C1901   1.405       .  A
C1901      C1902   1.404       .  A
C1901     Br1908   1.937       .  S
C1902      C1903   1.420       .  A
C1902     Br1907   1.933       .  S
C1903      C1904   1.409       .  A
C1904     Br1905   1.933       .  S
