geometry optimzed in LAMMPS
_audit_creation_date              2020-12-01 
_audit_creation_method            'lammps2cif' 
_symmetry_space_group_name_H-M    'P1' 
_symmetry_Int_Tables_number       1 
_symmetry_cell_setting            triclinic 
loop_ 
_symmetry_equiv_pos_as_xyz 
  x,y,z 
_cell_length_a                    40.82917476 
_cell_length_b                    41.15465651285493 
_cell_length_c                    31.841614239820256 
_cell_angle_alpha                 90.20826789179308 
_cell_angle_beta                  89.86360216259696 
_cell_angle_gamma                 120.41620671652595 
loop_ 
_atom_site_label 
_atom_site_type_symbol 
_atom_site_fract_x 
_atom_site_fract_y 
_atom_site_fract_z 
_atom_site_charge 
O1          O  0.29637631  0.19338734  0.28652314    -0.82700
C2          C  0.37790831  0.20389460  0.42637361     0.96700
O3          O  0.36221182  0.18133823  0.39615646    -0.71800
O4          O  0.31314116  0.14757237  0.33582690    -0.75400
Al5        Al  0.35891138  0.19540137  0.34027377     1.49000
C6          C  0.28059129  0.13472833  0.35181581     0.91900
O7          O  0.27501836  0.21938450  0.39391344    -0.81600
O8          O  0.34293933  0.29042606  0.36977991    -0.75200
Al9        Al  0.29036823  0.20748110  0.34183572     1.90100
O10         O  0.32555513  0.24011493  0.43368254    -0.74200
O11         O  0.40587975  0.28636035  0.35430875    -0.74100
O12         O  0.38770878  0.23832854  0.42299929    -0.79700
O13         O  0.41096211  0.23682814  0.34172365    -0.77900
O14         O  0.33754735  0.22144453  0.35781761    -1.14100
O15         O  0.35569226  0.20650549  0.28249705    -0.73300
C16         C  0.32463861  0.19860548  0.26480696     0.97400
C17         C  0.29079479  0.22885903  0.42944027     0.93800
Al18       Al  0.36341704  0.26066880  0.39199130     1.55600
O19         O  0.26915308  0.15689282  0.36238552    -0.77900
C20         C  0.42611328  0.27224442  0.34467478     0.98000
C21         C  0.32067602  0.28602139  0.33983912     0.92900
O22         O  0.30475650  0.25557172  0.31935278    -0.83200
O23         O  0.20178326  0.27346428  0.71659508    -0.82700
C24         C  0.22072337  0.35835197  0.57843818     0.96700
O25         O  0.19516283  0.34093455  0.60578187    -0.71800
O26         O  0.15721514  0.29081240  0.66607143    -0.75400
Al27       Al  0.20599263  0.33642763  0.66288263     1.49000
C28         C  0.14502529  0.25820453  0.65136529     0.91900
O29         O  0.23096437  0.25441005  0.60958397    -0.81600
O30         O  0.30359977  0.32055948  0.64169939    -0.75200
Al31       Al  0.21745027  0.26808371  0.66164107     1.90100
O32         O  0.25780126  0.30707670  0.57357942    -0.74200
O33         O  0.29820962  0.38312349  0.65808318    -0.74100
O34         O  0.25491129  0.36753069  0.58575416    -0.79700
O35         O  0.24754850  0.38806135  0.66361764    -0.77900
O36         O  0.23317637  0.31551221  0.64756471    -1.14100
O37         O  0.21492886  0.33244293  0.72061489    -0.73300
C38         C  0.20677751  0.30163078  0.73819476     0.97400
C39         C  0.24381393  0.27200446  0.57553037     0.93800
Al40       Al  0.27528925  0.34239488  0.61764634     1.55600
O41         O  0.16794781  0.24853755  0.63848411    -0.77900
C42         C  0.28334749  0.40329721  0.66442509     0.98000
C43         C  0.29599654  0.29591878  0.66972638     0.92900
O44         O  0.26378394  0.27966867  0.68667549    -0.83200
O45         O  0.41775173  0.19619026  0.61772318    -0.82700
C46         C  0.34499685  0.11578446  0.75900253     0.96700
O47         O  0.33824621  0.13176625  0.72929433    -0.71800
O48         O  0.35384486  0.18092576  0.66906192    -0.75400
Al49       Al  0.35572926  0.13524323  0.67298383     1.49000
C50         C  0.37545926  0.21410772  0.68208615     0.91900
O51         O  0.46501971  0.21856281  0.72535391    -0.81600
O52         O  0.46799604  0.15149892  0.70346051    -0.75200
Al53       Al  0.43768929  0.20264151  0.67310873     1.90100
O54         O  0.43397548  0.16922129  0.76605658    -0.74200
O55         O  0.40039612  0.08857932  0.68775569    -0.74100
O56         O  0.37010087  0.10663665  0.75515675    -0.79700
O57         O  0.34583047  0.08393614  0.67322996    -0.77900
O58         O  0.40365301  0.15634093  0.69001253    -1.14100
O59         O  0.36941167  0.13816060  0.61494778    -0.73300
C60         C  0.39346113  0.16825802  0.59665475     0.97400
C61         C  0.45791170  0.20366759  0.76134110     0.93800
Al62       Al  0.41705165  0.13109091  0.72482883     1.55600
O63         O  0.40919334  0.22483796  0.69241085    -0.77900
C64         C  0.36622648  0.06884715  0.67577222     0.98000
C65         C  0.48569375  0.17266100  0.67283146     0.92900
O66         O  0.47050192  0.18707017  0.65132758    -0.83200
O67         O  0.09466292  0.29421591  0.04961811    -0.82700
C68         C  0.16118518  0.27330268  0.91124481     0.96700
O69         O  0.16973057  0.29869488  0.93872017    -0.71800
O70         O  0.15736287  0.33741310  0.99770208    -0.75400
Al71       Al  0.15340211  0.28867388  0.99589572     1.49000
C72         C  0.13663043  0.34944460  0.98354139     0.91900
O73         O  0.04490215  0.26388634  0.94398564    -0.81600
O74         O  0.03872386  0.19349578  0.97296273    -0.75200
Al75       Al  0.07315536  0.27776518  0.99533409     1.90100
O76         O  0.07225568  0.23973709  0.90596501    -0.74200
O77         O  0.10577217  0.19657012  0.98867147    -0.74100
O78         O  0.13488025  0.23986742  0.91790665    -0.79700
O79         O  0.16166301  0.24659379  0.99786659    -0.77900
O80         O  0.10500884  0.26220696  0.98039803    -1.14100
O81         O  0.14020922  0.28080524  0.05413566    -0.73300
C82         C  0.11740258  0.28913700  0.07156196     0.97400
C83         C  0.05023061  0.25260186  0.90913907     0.93800
Al84       Al  0.08912164  0.22077417  0.94933376     1.55600
O85         O  0.10327796  0.32668202  0.97177252    -0.77900
C86         C  0.14067568  0.21103892  0.99752362     0.98000
C87         C  0.02228238  0.20032331  0.00251153     0.92900
O88         O  0.03875695  0.23160023  0.02107721    -0.83200
O89         O  0.29743379  0.07613124  0.95046700    -0.82700
C90         C  0.28964862  0.14582503  0.09427134     0.96700
O91         O  0.31264537  0.15247751  0.06448183    -0.71800
O92         O  0.34607487  0.13731946  0.00328514    -0.75400
Al93       Al  0.29874696  0.13628816  0.00787286     1.49000
C94         C  0.35704767  0.11530749  0.01563664     0.91900
O95         O  0.26962415  0.02586193  0.05612367    -0.81600
O96         O  0.20010854  0.02412190  0.03495839    -0.75200
Al97       Al  0.28250767  0.05469222  0.00501264     1.90100
O98         O  0.25206045  0.05645206  0.09848854    -0.74200
O99         O  0.20627596  0.09325256  0.02236790    -0.74100
O100        O  0.25494872  0.12082231  0.09045976    -0.79700
O101        O  0.25802171  0.14683397  0.00942429    -0.77900
O102        O  0.27073695  0.08843945  0.02346149    -1.14100
O103        O  0.28817089  0.12424983  0.94953264    -0.73300
C104        C  0.29467800  0.10108627  0.93031833     0.97400
C105        C  0.26191103  0.03233921  0.09254017     0.93800
Al106      Al  0.23147206  0.07471771  0.05823905     1.55600
O107        O  0.33334782  0.08177126  0.02527560    -0.77900
C108        C  0.22222655  0.12791335  0.01288756     0.98000
C109        C  0.20415096  0.00711695  0.00381463     0.92900
O110        O  0.23388386  0.02349948  0.98203087    -0.83200
O111        O  0.22142620  0.40214912  0.38352967    -0.82700
C112        C  0.13510355  0.33378950  0.24534889     0.96700
O113        O  0.15198060  0.32628732  0.27355694    -0.71800
O114        O  0.20387616  0.34076548  0.33217019    -0.75400
Al115      Al  0.15749797  0.34287266  0.33034763     1.49000
C116        C  0.23706738  0.36213931  0.31816317     0.91900
O117        O  0.24024846  0.45189636  0.27865840    -0.81600
O118        O  0.17572753  0.45643692  0.30517789    -0.75200
Al119      Al  0.22594001  0.42326437  0.32961296     1.90100
O120        O  0.18944775  0.42155782  0.23923949    -0.74200
O121        O  0.11177058  0.38900382  0.32162250    -0.74100
O122        O  0.12613333  0.35873717  0.25142773    -0.79700
O123        O  0.10606476  0.33379610  0.33265524    -0.77900
O124        O  0.17873739  0.39053981  0.31424814    -1.14100
O125        O  0.16226991  0.35605354  0.38853086    -0.73300
C126        C  0.19384087  0.37866765  0.40553951     0.97400
C127        C  0.22416275  0.44547322  0.24333585     0.93800
Al128      Al  0.15278601  0.40522725  0.28230164     1.55600
O129        O  0.24692193  0.39496687  0.30608216    -0.77900
C130        C  0.09173584  0.35491063  0.33281674     0.98000
C131        C  0.19814490  0.47232865  0.33577964     0.92900
O132        O  0.21099242  0.45475268  0.35543301    -0.83200
C133        C  0.26210528  0.50799857  0.21166494    -0.27200
C134        C  0.24462446  0.46885973  0.20717715    -0.15300
C135        C  0.24082961  0.45277621  0.16708568     0.35400
C136        C  0.25169990  0.47612762  0.13159476    -0.26600
C137        C  0.26118763  0.00956382  0.12840787    -0.15900
C138        C  0.27639842  0.02647891  0.16751043     0.36500
N139        N  0.29963572  0.06661228  0.17091069    -0.90100
H140        H  0.27754465  0.01745207  0.23383219     0.17600
H141        H  0.24679881  0.46367235  0.10052450     0.17600
N142        N  0.22428537  0.41269683  0.16267041    -0.89200
H143        H  0.32579988  0.07288510  0.18358481     0.34900
H144        H  0.28662531  0.07613617  0.19198684     0.40000
H145        H  0.24234904  0.40526970  0.17750840     0.39700
H146        H  0.22311560  0.40528149  0.13099513     0.34500
C147        C  0.14802465  0.29661808  0.14135704    -0.27200
C148        C  0.11815008  0.29488866  0.11778584    -0.15300
C149        C  0.09070718  0.30065818  0.13894231     0.35400
C150        C  0.09544864  0.31049936  0.18139463    -0.26600
C151        C  0.12686365  0.31500890  0.20389663    -0.15900
C152        C  0.15263678  0.30676063  0.18398857     0.36500
N153        N  0.18492835  0.31093002  0.20610574    -0.90100
H154        H  0.16906983  0.29185352  0.12630599     0.17600
H155        H  0.07509630  0.31626530  0.19651956     0.17600
N156        N  0.05800824  0.29755667  0.11851069    -0.89200
H157        H  0.20920832  0.33076292  0.18993746     0.34900
H158        H  0.18392535  0.28507264  0.20496102     0.40000
H159        H  0.04275536  0.27105625  0.10427926     0.39700
H160        H  0.06668019  0.31881397  0.09608125     0.34500
C161        C  0.14589837  0.40529405  0.02298403    -0.27200
C162        C  0.15035185  0.39020310  0.98533313    -0.15300
C163        C  0.17069831  0.41453676  0.95215164     0.35400
C164        C  0.18802201  0.45379872  0.95787463    -0.26600
C165        C  0.18559703  0.46930224  0.99656896    -0.15900
C166        C  0.16336080  0.44444986  0.02898997     0.36500
N167        N  0.16068851  0.45870003  0.06917508    -0.90100
H168        H  0.13031586  0.38657547  0.04873062     0.17600
H169        H  0.20518629  0.47226807  0.93268689     0.17600
N170        N  0.17505603  0.39952854  0.91327072    -0.89200
H171        H  0.17153165  0.44830126  0.09179316     0.34900
H172        H  0.13194891  0.44812243  0.07580711     0.40000
H173        H  0.20409206  0.41084089  0.90778028     0.39700
H174        H  0.16424260  0.40868720  0.88927561     0.34500
C175        C  0.19861467  0.20682572  0.01045568    -0.27200
C176        C  0.15912486  0.18767353  0.00412413    -0.15300
C177        C  0.13993689  0.14787481  0.00070776     0.35400
C178        C  0.16047824  0.12854200  0.00351603    -0.26600
C179        C  0.20025443  0.14816538  0.00889239    -0.15900
C180        C  0.21906651  0.18794353  0.01272317     0.36500
N181        N  0.25924298  0.20979268  0.01966311    -0.90100
H182        H  0.21440943  0.23726184  0.01318285     0.17600
H183        H  0.14524043  0.09809977  0.00099130     0.17600
N184        N  0.09976222  0.12689289  0.99399561    -0.89200
H185        H  0.26403088  0.22470258  0.04782712     0.34900
H186        H  0.27139701  0.22926582  0.99525513     0.40000
H187        H  0.08741501  0.10764896  0.01859564     0.39700
H188        H  0.09460619  0.11163128  0.96606451     0.34500
C189        C  0.41973041  0.15619498  0.04805756    -0.27200
C190        C  0.39817266  0.12950933  0.01745755    -0.15300
C191        C  0.41668559  0.12141789  0.98522123     0.35400
C192        C  0.45669762  0.14242448  0.98258329    -0.26600
C193        C  0.47836142  0.17149827  0.01149108    -0.15900
C194        C  0.45945622  0.17691090  0.04574027     0.36500
N195        N  0.48028107  0.20453460  0.07743496    -0.90100
H196        H  0.40557134  0.16231862  0.07284539     0.17600
H197        H  0.47066587  0.13792450  0.95611490     0.17600
N198        N  0.39467878  0.09396456  0.95359885    -0.89200
H199        H  0.47388096  0.19093649  0.10651185     0.34900
H200        H  0.98321168  0.20883701  0.09948144     0.40000
H201        H  0.37981287  0.06772403  0.96832454     0.39700
H202        H  0.41249734  0.09197050  0.93140163     0.34500
C203        C  0.01989882  0.25063149  0.79694206    -0.27200
C204        C  0.47989988  0.22554713  0.79813974    -0.15300
C205        C  0.46297039  0.21865500  0.83818771     0.35400
C206        C  0.48595587  0.23246300  0.87398016    -0.26600
C207        C  0.02750233  0.25044136  0.87252060    -0.15900
C208        C  0.04367106  0.26154751  0.83206486     0.36500
N209        N  0.08395869  0.28306215  0.82571461    -0.90100
H210        H  0.03250762  0.25717380  0.76587072     0.17600
H211        H  0.47280605  0.22497874  0.90475997     0.17600
N212        N  0.42252698  0.19634001  0.84261313    -0.89200
H213        H  0.09608412  0.26734753  0.83568330     0.34900
H214        H  0.09493867  0.30753872  0.84396693     0.40000
H215        H  0.41321176  0.21245546  0.85848894     0.39700
H216        H  0.41618190  0.17298210  0.86123846     0.34500
C217        C  0.32022063  0.13739311  0.81774405    -0.27200
C218        C  0.32508426  0.10895204  0.79960017    -0.15300
C219        C  0.31584772  0.07656206  0.82307603     0.35400
C220        C  0.30356659  0.07374350  0.86462745    -0.26600
C221        C  0.30120894  0.10324917  0.88414609    -0.15900
C222        C  0.30880547  0.13504671  0.85993720     0.36500
N223        N  0.30685725  0.16580184  0.87839391    -0.90100
H224        H  0.32769770  0.16266242  0.80001936     0.17600
H225        H  0.29734711  0.04873557  0.88216283     0.17600
N226        N  0.31967657  0.04669748  0.80504080    -0.89200
H227        H  0.28758654  0.16994084  0.86100373     0.34900
H228        H  0.33361767  0.19005869  0.87570762     0.40000
H229        H  0.29324683  0.02191104  0.80649167     0.39700
H230        H  0.33873395  0.04304164  0.82347351     0.34500
C231        C  0.19583383  0.31885327  0.85373833    -0.27200
C232        C  0.17994329  0.28217712  0.86970460    -0.15300
C233        C  0.17735076  0.25317457  0.84343668     0.35400
C234        C  0.18771199  0.26085410  0.80117767    -0.26600
C235        C  0.20092525  0.29688263  0.78424934    -0.15900
C236        C  0.20632547  0.32645563  0.81130529     0.36500
N237        N  0.22156012  0.36402755  0.79584135    -0.90100
H238        H  0.19825784  0.34139054  0.87363009     0.17600
H239        H  0.18425653  0.23800138  0.78113201     0.17600
N240        N  0.16319684  0.21569979  0.85938445    -0.89200
H241        H  0.24606170  0.38174348  0.81302609     0.34900
H242        H  0.20167517  0.37240761  0.80149697     0.40000
H243        H  0.18241839  0.21715834  0.88201070     0.39700
H244        H  0.16241436  0.19759943  0.83577765     0.34500
C245        C  0.08874135  0.21188938  0.69132040    -0.27200
C246        C  0.10396501  0.23055660  0.65328778    -0.15300
C247        C  0.07944106  0.22565265  0.61984774     0.35400
C248        C  0.03986895  0.20467089  0.62623113    -0.26600
C249        C  0.02439249  0.18821211  0.66541638    -0.15900
C250        C  0.04928987  0.19069993  0.69767448     0.36500
N251        N  0.03490098  0.17413262  0.73795223    -0.90100
H252        H  0.10762752  0.21540739  0.71705192     0.17600
H253        H  0.02108359  0.20285186  0.60118099     0.17600
N254        N  0.09478853  0.24350617  0.58027872    -0.89200
H255        H  0.04621711  0.19556187  0.76054432     0.34900
H256        H  0.04466589  0.15558524  0.74439543     0.40000
H257        H  0.07296751  0.23757739  0.55906881     0.39700
H258        H  0.11009653  0.23163069  0.56775308     0.34500
C259        C  0.29354589  0.46662357  0.64634058    -0.27200
C260        C  0.30680992  0.44543951  0.66721748    -0.15300
C261        C  0.34177494  0.46502793  0.68866496     0.35400
C262        C  0.36516964  0.00685824  0.68349773    -0.26600
C263        C  0.34853719  0.02719466  0.66760983    -0.15900
C264        C  0.31296829  0.00659697  0.64728699     0.36500
N265        N  0.29590968  0.02568345  0.62764479    -0.90100
H266        H  0.26714634  0.45224097  0.62888494     0.17600
H267        H  0.39251481  0.02183763  0.69899195     0.17600
N268        N  0.35580380  0.44450738  0.71109520    -0.89200
H269        H  0.26929010  0.01614861  0.64133217     0.34900
H270        H  0.29181079  0.01816155  0.59586460     0.40000
H271        H  0.35868250  0.45256747  0.74267628     0.39700
H272        H  0.38279683  0.45251606  0.69943962     0.34500
C273        C  0.35127767  0.28824288  0.65010034    -0.27200
C274        C  0.32268688  0.28200062  0.67927569    -0.15300
C275        C  0.31538395  0.25640540  0.71262945     0.35400
C276        C  0.33429713  0.23582250  0.71422523    -0.26600
C277        C  0.36096548  0.24053723  0.68360839    -0.15900
C278        C  0.37021712  0.26761015  0.65194727     0.36500
N279        N  0.39726069  0.27260538  0.62017458    -0.90100
H280        H  0.35722046  0.30729874  0.62403461     0.17600
H281        H  0.32714818  0.21509588  0.73877582     0.17600
N282        N  0.28782303  0.25016542  0.74429711    -0.89200
H283        H  0.41881366  0.30089686  0.62038264     0.34900
H284        H  0.38365049  0.26676488  0.59102257     0.40000
H285        H  0.30130590  0.25620923  0.77351997     0.39700
H286        H  0.26693511  0.22160776  0.74383577     0.34500
C287        C  0.24233734  0.39126853  0.51062135    -0.27200
C288        C  0.21177689  0.36756615  0.53664718    -0.15300
C289        C  0.17455944  0.35052358  0.52031112     0.35400
C290        C  0.16897504  0.35540800  0.47777065    -0.26600
C291        C  0.19994760  0.37708462  0.45115619    -0.15900
C292        C  0.23699382  0.39598045  0.46839814     0.36500
N293        N  0.26975936  0.41904576  0.44307530    -0.90100
H294        H  0.27115925  0.40531975  0.52254545     0.17600
H295        H  0.14032731  0.34128472  0.46534581     0.17600
N296        N  0.14240326  0.32711115  0.54605002    -0.89200
H297        H  0.28797403  0.40815845  0.44467308     0.34900
H298        H  0.28387877  0.44616545  0.45594746     0.40000
H299        H  0.12746369  0.30083663  0.53132126     0.39700
H300        H  0.12480558  0.33872244  0.54659421     0.34500
C301        C  0.49027355  0.28594810  0.36643338    -0.27200
C302        C  0.46834196  0.29617903  0.34201010    -0.15300
C303        C  0.48719878  0.32855468  0.31662360     0.35400
C304        C  0.02884096  0.35234768  0.32437032    -0.26600
C305        C  0.05039207  0.33814579  0.34302220    -0.15900
C306        C  0.03111242  0.30522393  0.36763618     0.36500
N307        N  0.05190646  0.29138876  0.39012348    -0.90100
H308        H  0.47624271  0.26157582  0.38679860     0.17600
H309        H  0.04295876  0.37767209  0.30551284     0.17600
N310        N  0.46562051  0.33929489  0.29079940    -0.89200
H311        H  0.04251682  0.26383797  0.38005719     0.34900
H312        H  0.04542834  0.29051203  0.42203686     0.40000
H313        H  0.47339266  0.33908780  0.25953028     0.39700
H314        H  0.47324102  0.36692990  0.29863419     0.34500
C315        C  0.28088162  0.35006486  0.35995380    -0.27200
C316        C  0.26529589  0.34968885  0.32065397    -0.15300
C317        C  0.27485157  0.33496256  0.28590571     0.35400
C318        C  0.29577331  0.31665882  0.29186334    -0.26600
C319        C  0.30879343  0.31423589  0.33194100    -0.15900
C320        C  0.30321016  0.33331381  0.36570518     0.36500
N321        N  0.31836151  0.33406289  0.40645410    -0.90100
H322        H  0.27455618  0.36227464  0.38673313     0.17600
H323        H  0.30043535  0.30289155  0.26535426     0.17600
N324        N  0.26233253  0.33731909  0.24479125    -0.89200
H325        H  0.29591307  0.32225012  0.42788997     0.34900
H326        H  0.33621116  0.36225062  0.41496180     0.40000
H327        H  0.24732686  0.30999002  0.23259732     0.39700
H328        H  0.28640716  0.35268413  0.22603799     0.34500
C329        C  0.25331465  0.03325174  0.36730043    -0.27200
C330        C  0.21696808  0.01336900  0.34889415    -0.15300
C331        C  0.19888546  0.03400164  0.33820614     0.35400
C332        C  0.21865051  0.07361060  0.34294619    -0.26600
C333        C  0.25653884  0.09325092  0.35697039    -0.15900
C334        C  0.27323564  0.07250155  0.37064296     0.36500
N335        N  0.31127260  0.09133208  0.38661404    -0.90100
H336        H  0.26794827  0.01866048  0.37677111     0.17600
H337        H  0.20529586  0.08924692  0.33276962     0.17600
N338        N  0.16108224  0.01592736  0.32173835    -0.89200
H339        H  0.32767489  0.08460484  0.36716540     0.34900
H340        H  0.31074234  0.08057622  0.41645981     0.40000
H341        H  0.14296712  0.49883539  0.33337694     0.39700
H342        H  0.16067599  0.00382306  0.29271384     0.34500
C343        C  0.34511560  0.18632343  0.19525907    -0.27200
C344        C  0.31954839  0.19250288  0.21862143    -0.15300
C345        C  0.28698990  0.18872040  0.19817793     0.35400
C346        C  0.27872422  0.17516192  0.15683937    -0.26600
C347        C  0.30285329  0.16634216  0.13463771    -0.15900
C348        C  0.33709394  0.17347151  0.15349199     0.36500
N349        N  0.36282988  0.16570311  0.13123786    -0.90100
H350        H  0.37050425  0.18957500  0.20999565     0.17600
H351        H  0.25274971  0.17067397  0.14233250     0.17600
N352        N  0.26177080  0.19799513  0.21937040    -0.89200
H353        H  0.36593583  0.14576249  0.14826304     0.34900
H354        H  0.38923775  0.19058663  0.13035148     0.40000
H355        H  0.23468521  0.17398047  0.21981246     0.39700
H356        H  0.26036737  0.21876229  0.20198720     0.34500
C357        C  0.26339083  0.23064527  0.54191951    -0.27200
C358        C  0.24602803  0.25237410  0.53810814    -0.15300
C359        C  0.23755247  0.26044824  0.49799141     0.35400
C360        C  0.24850776  0.24837011  0.46218253    -0.26600
C361        C  0.26970723  0.23032686  0.46612378    -0.15900
C362        C  0.27609491  0.22032460  0.50622968     0.36500
N363        N  0.29696099  0.20116860  0.51085064    -0.90100
H364        H  0.27019552  0.22458262  0.57273928     0.17600
H365        H  0.24341239  0.25608620  0.43139386     0.17600
N366        N  0.21933985  0.28225916  0.49365339    -0.89200
H367        H  0.27986172  0.17604367  0.52702844     0.34900
H368        H  0.32091707  0.21795993  0.52925450     0.40000
H369        H  0.19444088  0.26643312  0.47629645     0.39700
H370        H  0.23731575  0.30650388  0.47647276     0.34500
C371        C  0.35797171  0.15016995  0.52865683    -0.27200
C372        C  0.39207540  0.17264752  0.55047559    -0.15300
C373        C  0.42313324  0.20218606  0.52878132     0.35400
C374        C  0.41841610  0.21097911  0.48757782    -0.26600
C375        C  0.38362322  0.19010077  0.46684457    -0.15900
C376        C  0.35336927  0.15867575  0.48704801     0.36500
N377        N  0.31751445  0.13666416  0.46607754    -0.90100
H378        H  0.33410869  0.12728506  0.54482064     0.17600
H379        H  0.44189650  0.23476658  0.47196495     0.17600
N380        N  0.45947119  0.22372712  0.54860102    -0.89200
H381        H  0.30626022  0.15411520  0.46019228     0.34900
H382        H  0.29813951  0.11498476  0.48538068     0.40000
H383        H  0.46681347  0.25203772  0.54878585     0.39700
H384        H  0.47948669  0.22130778  0.53040947     0.34500
O385        O  0.29999146  0.69329528  0.28979274    -0.82700
C386        C  0.38042360  0.70342651  0.43018905     0.96700
O387        O  0.36474354  0.68070831  0.40008434    -0.71800
O388        O  0.31618723  0.64711004  0.33895926    -0.75400
Al389      Al  0.36197208  0.69483296  0.34412726     1.49000
C390        C  0.28305371  0.63425597  0.35326076     0.91900
O391        O  0.27777582  0.71834647  0.39736007    -0.81600
O392        O  0.34556950  0.78982720  0.37369395    -0.75200
Al393      Al  0.29354297  0.70699580  0.34504301     1.90100
O394        O  0.32822392  0.73912127  0.43726238    -0.74200
O395        O  0.40918561  0.78602021  0.35858049    -0.74100
O396        O  0.39046829  0.73787352  0.42657065    -0.79700
O397        O  0.41392918  0.73626462  0.34617209    -0.77900
O398        O  0.34057712  0.72088128  0.36139394    -1.14100
O399        O  0.35922993  0.70595261  0.28635572    -0.73300
C400        C  0.32824040  0.69797772  0.26845947     0.97400
C401        C  0.29334214  0.72726052  0.43306938     0.93800
Al402      Al  0.36624390  0.76009282  0.39578961     1.55600
O403        O  0.27192073  0.65640923  0.36470947    -0.77900
C404        C  0.42945563  0.77171142  0.34966525     0.98000
C405        C  0.32346357  0.78513030  0.34346297     0.92900
O406        O  0.30822957  0.75485819  0.32284567    -0.83200
O407        O  0.20766874  0.77750119  0.72020915    -0.82700
C408        C  0.22377589  0.85629163  0.57609600     0.96700
O409        O  0.19835239  0.83902737  0.60362521    -0.71800
O410        O  0.16086340  0.79075901  0.66592511    -0.75400
Al411      Al  0.20938611  0.83686118  0.66139307     1.49000
C412        C  0.14926117  0.75729069  0.65443013     0.91900
O413        O  0.23610639  0.75384684  0.61492173    -0.81600
O414        O  0.30782117  0.82149102  0.64210593    -0.75200
Al415      Al  0.22291854  0.76978086  0.66603400     1.90100
O416        O  0.26013714  0.80446730  0.57540272    -0.74200
O417        O  0.30203999  0.88443461  0.65504599    -0.74100
O418        O  0.25798264  0.86574994  0.58333264    -0.79700
O419        O  0.25080692  0.88858589  0.66026678    -0.77900
O420        O  0.23717409  0.81608687  0.64840912    -1.14100
O421        O  0.21822082  0.83564134  0.71981430    -0.73300
C422        C  0.21127755  0.80614460  0.73958345     0.97400
C423        C  0.24711850  0.76968125  0.57957916     0.93800
Al424      Al  0.27867561  0.84190882  0.61701678     1.55600
O425        O  0.17270709  0.74749636  0.64393721    -0.77900
C426        C  0.28671022  0.90430775  0.66069490     0.98000
C427        C  0.30153962  0.79899115  0.67217697     0.92900
O428        O  0.27020804  0.78422627  0.69099475    -0.83200
O429        O  0.41657145  0.69784265  0.62322810    -0.82700
C430        C  0.35096965  0.61402527  0.76249701     0.96700
O431        O  0.34257246  0.63042364  0.73458701    -0.71800
O432        O  0.35511287  0.68049992  0.67484367    -0.75400
Al433      Al  0.35755465  0.63473584  0.67737846     1.49000
C434        C  0.37635140  0.71321927  0.68939955     0.91900
O435        O  0.46708298  0.71730460  0.72917805    -0.81600
O436        O  0.47211739  0.65149028  0.69760364    -0.75200
Al437      Al  0.43831672  0.70295354  0.67761194     1.90100
O438        O  0.43998674  0.66517973  0.76585308    -0.74200
O439        O  0.40253281  0.58799118  0.68355814    -0.74100
O440        O  0.37560963  0.60456194  0.75540124    -0.79700
O441        O  0.34705746  0.58328315  0.67615678    -0.77900
O442        O  0.40599403  0.65574419  0.69238494    -1.14100
O443        O  0.37017303  0.63869968  0.61911771    -0.73300
C444        C  0.39343226  0.66960093  0.60154985     0.97400
C445        C  0.46176153  0.70018812  0.76364643     0.93800
Al446      Al  0.42133202  0.62941205  0.72263477     1.55600
O447        O  0.40936340  0.72297109  0.70156835    -0.77900
C448        C  0.36736474  0.56806940  0.67560013     0.98000
C449        C  0.48823000  0.67562186  0.66866371     0.92900
O450        O  0.47081590  0.68975667  0.65128951    -0.83200
O451        O  0.09471128  0.79007947  0.05039126    -0.82700
C452        C  0.16486059  0.77721451  0.91179714     0.96700
O453        O  0.17177296  0.80115988  0.94048757    -0.71800
O454        O  0.15624096  0.83610285  0.00075775    -0.75400
Al455      Al  0.15532179  0.78856307  0.99707784     1.49000
C456        C  0.13443269  0.84673968  0.98613092     0.91900
O457        O  0.04514678  0.75899641  0.94536675    -0.81600
O458        O  0.04274566  0.69021143  0.97181867    -0.75200
Al459      Al  0.07362507  0.77349661  0.99629235     1.90100
O460        O  0.07522855  0.73879048  0.90582712    -0.74200
O461        O  0.11182309  0.69693532  0.98646918    -0.74100
O462        O  0.13998852  0.74282375  0.91675045    -0.79700
O463        O  0.16683727  0.74796709  0.99656823    -0.77900
O464        O  0.10728740  0.76055331  0.98073961    -1.14100
O465        O  0.14157757  0.77861372  0.05527878    -0.73300
C466        C  0.11828078  0.78649702  0.07247623     0.97400
C467        C  0.05141586  0.74934732  0.91005633     0.93800
Al468      Al  0.09352210  0.72036004  0.94825856     1.55600
O469        O  0.10175142  0.82285388  0.97342696    -0.77900
C470        C  0.14696622  0.71227943  0.99440648     0.98000
C471        C  0.02562927  0.69565018  0.00191912     0.92900
O472        O  0.04143113  0.72656209  0.02123991    -0.83200
O473        O  0.30838815  0.57887433  0.95763471    -0.82700
C474        C  0.29405723  0.64756310  0.09686863     0.96700
O475        O  0.31814043  0.65486048  0.06812950    -0.71800
O476        O  0.35418564  0.64046784  0.00925757    -0.75400
Al477      Al  0.30644837  0.63904958  0.01138289     1.49000
C478        C  0.36502747  0.61914014  0.02415284     0.91900
O479        O  0.27692932  0.53017767  0.06362915    -0.81600
O480        O  0.20703885  0.52733447  0.03485108    -0.75200
Al481      Al  0.29150952  0.55796908  0.01212084     1.90100
O482        O  0.25487594  0.55936689  0.10174980    -0.74200
O483        O  0.21393172  0.59595759  0.01961432    -0.74100
O484        O  0.25919435  0.62384683  0.09091405    -0.79700
O485        O  0.26573095  0.65013611  0.00976390    -0.77900
O486        O  0.27801531  0.59127606  0.02711276    -1.14100
O487        O  0.29766919  0.62607024  0.95327916    -0.73300
C488        C  0.30525200  0.60287649  0.93587868     0.97400
C489        C  0.26656405  0.53645385  0.09860004     0.93800
Al490      Al  0.23699753  0.57766000  0.05875270     1.55600
O491        O  0.34116440  0.58619917  0.03540081    -0.77900
C492        C  0.22980575  0.63044530  0.00952037     0.98000
C493        C  0.21292523  0.50984635  0.00563091     0.92900
O494        O  0.24433082  0.52521664  0.98684814    -0.83200
O495        O  0.22634108  0.90298431  0.38148281    -0.82700
C496        C  0.13823940  0.83499226  0.24541336     0.96700
O497        O  0.15568366  0.82728431  0.27285363    -0.71800
O498        O  0.20669639  0.84009852  0.33258384    -0.75400
Al499      Al  0.16141064  0.84323956  0.32963562     1.49000
C500        C  0.23928901  0.86001412  0.31711838     0.91900
O501        O  0.24351387  0.94868927  0.27265853    -0.81600
O502        O  0.17643663  0.95548954  0.31040741    -0.75200
Al503      Al  0.23078654  0.92280853  0.32571996     1.90100
O504        O  0.18873077  0.92448694  0.24019761    -0.74200
O505        O  0.11429339  0.88723575  0.32625557    -0.74100
O506        O  0.12890194  0.85968707  0.25252342    -0.79700
O507        O  0.11030855  0.83272708  0.33177302    -0.77900
O508        O  0.18238806  0.89104711  0.31357856    -1.14100
O509        O  0.16665165  0.85712257  0.38700573    -0.73300
C510        C  0.19833660  0.87985696  0.40380361     0.97400
C511        C  0.22429376  0.94441135  0.23990531     0.93800
Al512      Al  0.15443373  0.90561153  0.28508616     1.55600
O513        O  0.24889413  0.89188663  0.30236955    -0.77900
C514        C  0.09467860  0.85237196  0.33387695     0.98000
C515        C  0.20281660  0.97311662  0.33686106     0.92900
O516        O  0.22097485  0.95826030  0.35064799    -0.83200
C517        C  0.26755734  0.00400520  0.20349586    -0.27200
C518        C  0.24254717  0.96500888  0.20106593    -0.15300
C519        C  0.22958666  0.94766813  0.16141112     0.35400
C520        C  0.23968217  0.97019468  0.12522910    -0.26600
C521        C  0.26519993  0.51484285  0.13588592    -0.15900
C522        C  0.27193152  0.53109637  0.17626747     0.36500
N523        N  0.28733261  0.57082613  0.18138721    -0.90100
H524        H  0.26514164  0.52038316  0.24257050     0.17600
H525        H  0.22819992  0.95725219  0.09500947     0.17600
N526        N  0.20456474  0.90755048  0.15843822    -0.89200
H527        H  0.31204248  0.58141312  0.19940526     0.34900
H528        H  0.26775400  0.57498234  0.19829505     0.40000
H529        H  0.21957457  0.89467681  0.16878654     0.39700
H530        H  0.19708407  0.89931568  0.12720986     0.34500
C531        C  0.14666560  0.79184021  0.14321221    -0.27200
C532        C  0.11937588  0.79381702  0.11838571    -0.15300
C533        C  0.09515094  0.80505616  0.13787998     0.35400
C534        C  0.10047417  0.81593841  0.17995332    -0.26600
C535        C  0.12939642  0.81634753  0.20380298    -0.15900
C536        C  0.15194479  0.80310794  0.18549624     0.36500
N537        N  0.18183309  0.80316876  0.20880193    -0.90100
H538        H  0.16519965  0.78299351  0.12942592     0.17600
H539        H  0.08250656  0.82552453  0.19370358     0.17600
N540        N  0.06537129  0.80678141  0.11612809    -0.89200
H541        H  0.20719184  0.82023063  0.19269300     0.34900
H542        H  0.17699781  0.77567166  0.20898305     0.40000
H543        H  0.04646993  0.78026503  0.10357841     0.39700
H544        H  0.07706493  0.82699644  0.09238189     0.34500
C545        C  0.14026350  0.90230013  0.02393301    -0.27200
C546        C  0.14630731  0.88713675  0.98720221    -0.15300
C547        C  0.16568885  0.91112542  0.95347066     0.35400
C548        C  0.18094765  0.95022540  0.95787577    -0.26600
C549        C  0.17756219  0.96609185  0.99586749    -0.15900
C550        C  0.15555475  0.94141210  0.02856904     0.36500
N551        N  0.15044166  0.95588221  0.06746599    -0.90100
H552        H  0.12497789  0.88382058  0.04992744     0.17600
H553        H  0.19754243  0.96842291  0.93223916     0.17600
N554        N  0.17126784  0.89600806  0.91533534    -0.89200
H555        H  0.16126973  0.94692220  0.09163963     0.34900
H556        H  0.12127584  0.94400424  0.07254614     0.40000
H557        H  0.20048385  0.90870161  0.91000311     0.39700
H558        H  0.15952696  0.90351152  0.89072209     0.34500
C559        C  0.20450957  0.70620810  0.98404843    -0.27200
C560        C  0.16639419  0.68945351  0.99702941    -0.15300
C561        C  0.14782790  0.65125019  0.00946983     0.35400
C562        C  0.16822697  0.63179806  0.01178361    -0.26600
C563        C  0.20699223  0.64931724  0.00072773    -0.15900
C564        C  0.22449832  0.68657915  0.98497045     0.36500
N565        N  0.26266938  0.70478145  0.96938272    -0.90100
H566        H  0.21898448  0.73484263  0.97229787     0.17600
H567        H  0.15379130  0.60312012  0.02333293     0.17600
N568        N  0.10848503  0.63223917  0.02072137    -0.89200
H569        H  0.27886385  0.72960579  0.98653326     0.34900
H570        H  0.26234466  0.71207018  0.93802000     0.40000
H571        H  0.10592519  0.62260475  0.05155781     0.39700
H572        H  0.09402564  0.60876105  0.00107460     0.34500
C573        C  0.42843255  0.65586927  0.05763743    -0.27200
C574        C  0.40595941  0.63241028  0.02499377    -0.15300
C575        C  0.42341127  0.62637257  0.99002626     0.35400
C576        C  0.46329481  0.64597454  0.98711655    -0.26600
C577        C  0.48596365  0.67219122  0.01808084    -0.15900
C578        C  0.46821702  0.67579573  0.05457198     0.36500
N579        N  0.49036118  0.70089815  0.08777659    -0.90100
H580        H  0.41508242  0.66032050  0.08458505     0.17600
H581        H  0.47646006  0.64314716  0.95883423     0.17600
N582        N  0.40047089  0.60253085  0.95619332    -0.89200
H583        H  0.48408527  0.68529748  0.11548066     0.34900
H584        H  0.98386643  0.71392740  0.08969810     0.40000
H585        H  0.38469475  0.57508710  0.96782436     0.39700
H586        H  0.41757849  0.60187430  0.93211706     0.34500
C587        C  0.01995875  0.74976915  0.79921287    -0.27200
C588        C  0.48266835  0.72025644  0.80178603    -0.15300
C589        C  0.46572078  0.70861521  0.84175977     0.35400
C590        C  0.48815497  0.72244629  0.87789841    -0.26600
C591        C  0.02776133  0.74618647  0.87417044    -0.15900
C592        C  0.04353751  0.76111688  0.83447369     0.36500
N593        N  0.08334242  0.78708561  0.82905283    -0.90100
H594        H  0.03258365  0.75953304  0.76848838     0.17600
H595        H  0.47526114  0.71188302  0.90837328     0.17600
N596        N  0.42600095  0.68159124  0.84566058    -0.89200
H597        H  0.09849063  0.77394616  0.83769932     0.34900
H598        H  0.09118686  0.81010622  0.84899999     0.40000
H599        H  0.41345031  0.69360248  0.86381457     0.39700
H600        H  0.42309335  0.65820118  0.86181249     0.34500
C601        C  0.32209577  0.63191788  0.82052374    -0.27200
C602        C  0.33358883  0.60730196  0.80471959    -0.15300
C603        C  0.33249999  0.57938732  0.83125158     0.35400
C604        C  0.32195855  0.57802321  0.87334985    -0.26600
C605        C  0.31234353  0.60385305  0.88997442    -0.15900
C606        C  0.31163718  0.63053774  0.86285074     0.36500
N607        N  0.30129688  0.65689450  0.87814997    -0.90100
H608        H  0.32293730  0.65356212  0.80048522     0.17600
H609        H  0.32213674  0.55695009  0.89346692     0.17600
N610        N  0.34272423  0.55286013  0.81560622    -0.89200
H611        H  0.27814160  0.65348918  0.86061513     0.34900
H612        H  0.32407944  0.68409309  0.87284588     0.40000
H613        H  0.32271444  0.53628242  0.79279003     0.39700
H614        H  0.34096623  0.53456760  0.83929976     0.34500
C615        C  0.18771160  0.82105149  0.85131770    -0.27200
C616        C  0.18422012  0.78899855  0.87097870    -0.15300
C617        C  0.19385956  0.76545563  0.84876229     0.35400
C618        C  0.20487725  0.77308699  0.80670407    -0.26600
C619        C  0.20564534  0.80349526  0.78573654    -0.15900
C620        C  0.19790242  0.82829064  0.80874441     0.36500
N621        N  0.19831166  0.85959724  0.78871771    -0.90100
H622        H  0.17990103  0.83906429  0.86816032     0.17600
H623        H  0.21144859  0.75408522  0.79001492     0.17600
N624        N  0.19166747  0.73321834  0.86863041    -0.89200
H625        H  0.21761160  0.88413067  0.80472194     0.34900
H626        H  0.17129717  0.85633827  0.79183745     0.40000
H627        H  0.21846590  0.73581382  0.86696837     0.39700
H628        H  0.17265352  0.70924255  0.85157279     0.34500
C629        C  0.09261165  0.71172001  0.69525557    -0.27200
C630        C  0.10815938  0.72905859  0.65663842    -0.15300
C631        C  0.08392510  0.72155101  0.62211267     0.35400
C632        C  0.04426203  0.69981941  0.62785742    -0.26600
C633        C  0.02829983  0.68473004  0.66738041    -0.15900
C634        C  0.05297529  0.68918106  0.70092005     0.36500
N635        N  0.03783926  0.67328972  0.74142886    -0.90100
H636        H  0.11148315  0.71708038  0.72159517     0.17600
H637        H  0.02565832  0.69634252  0.60186902     0.17600
N638        N  0.09961486  0.73753042  0.58188954    -0.89200
H639        H  0.05975522  0.68071037  0.76309360     0.34900
H640        H  0.02397233  0.64398997  0.73829062     0.40000
H641        H  0.07802088  0.72975047  0.55978336     0.39700
H642        H  0.11585443  0.72584371  0.57175022     0.34500
C643        C  0.29391171  0.96701931  0.64585943    -0.27200
C644        C  0.30959314  0.94654057  0.66325952    -0.15300
C645        C  0.34621051  0.96694005  0.68110230     0.35400
C646        C  0.36226087  0.50502175  0.68947804    -0.26600
C647        C  0.34845890  0.52615646  0.66915090    -0.15900
C648        C  0.31385872  0.50627496  0.64690614     0.36500
N649        N  0.29919114  0.52624971  0.62440243    -0.90100
H650        H  0.26649097  0.95215591  0.63045314     0.17600
H651        H  0.38833880  0.51951637  0.70743233     0.17600
N652        N  0.36377530  0.94730855  0.69798697    -0.89200
H653        H  0.27213592  0.51793536  0.63615591     0.34900
H654        H  0.29635591  0.51817033  0.59284262     0.40000
H655        H  0.36952537  0.95451372  0.72972491     0.39700
H656        H  0.38966886  0.95689003  0.68250269     0.34500
C657        C  0.35173267  0.78493063  0.64944127    -0.27200
C658        C  0.32824706  0.78517154  0.68171938    -0.15300
C659        C  0.32489377  0.76510614  0.71910639     0.35400
C660        C  0.34233468  0.74313150  0.72215634    -0.26600
C661        C  0.36332087  0.74087321  0.68860745    -0.15900
C662        C  0.36895761  0.76280290  0.65252609     0.36500
N663        N  0.39081407  0.76128426  0.61811020    -0.90100
H664        H  0.35455680  0.79972891  0.62035535     0.17600
H665        H  0.33821125  0.72663346  0.75020158     0.17600
N666        N  0.30280861  0.76599747  0.75363544    -0.89200
H667        H  0.41304453  0.78864935  0.61225353     0.34900
H668        H  0.37341219  0.75189406  0.59152050     0.40000
H669        H  0.32041152  0.77606401  0.78003555     0.39700
H670        H  0.28125149  0.73838773  0.75981372     0.34500
C671        C  0.24400783  0.89464605  0.51132161    -0.27200
C672        C  0.21459838  0.86552055  0.53451009    -0.15300
C673        C  0.17868173  0.84365545  0.51567656     0.35400
C674        C  0.17337602  0.85008871  0.47365512    -0.26600
C675        C  0.20351401  0.87776469  0.44963987    -0.15900
C676        C  0.23893289  0.90094879  0.46935047     0.36500
N677        N  0.27032819  0.93033752  0.44680681    -0.90100
H678        H  0.27171367  0.91208720  0.52545011     0.17600
H679        H  0.14587112  0.83210953  0.45936807     0.17600
N680        N  0.14808988  0.81345555  0.53811332    -0.89200
H681        H  0.29270319  0.92487446  0.44741504     0.34900
H682        H  0.27909584  0.95579195  0.46251099     0.40000
H683        H  0.13962045  0.78861742  0.52121904     0.39700
H684        H  0.12531406  0.81831909  0.53869214     0.34500
C685        C  0.49298187  0.77960102  0.36446969    -0.27200
C686        C  0.47197275  0.79511255  0.34800076    -0.15300
C687        C  0.49208383  0.83220389  0.33219173     0.35400
C688        C  0.03376959  0.85350569  0.34599688    -0.26600
C689        C  0.05267987  0.83296906  0.34144188    -0.15900
C690        C  0.03043254  0.79311253  0.34080165     0.36500
N691        N  0.04756013  0.77019440  0.33752754    -0.90100
H692        H  0.47823198  0.75169612  0.37822315     0.17600
H693        H  0.05009761  0.88400591  0.34696238     0.17600
N694        N  0.47180347  0.84929857  0.31579494    -0.89200
H695        H  0.03707748  0.75348928  0.31054632     0.34900
H696        H  0.03931069  0.75238385  0.36361327     0.40000
H697        H  0.47979811  0.85632637  0.28442181     0.39700
H698        H  0.48035384  0.87426548  0.33246068     0.34500
C699        C  0.28186247  0.84796795  0.36096416    -0.27200
C700        C  0.26704588  0.84724641  0.32105475    -0.15300
C701        C  0.27615688  0.83120421  0.28729966     0.35400
C702        C  0.29784159  0.81394211  0.29439186    -0.26600
C703        C  0.31086480  0.81258409  0.33486549    -0.15900
C704        C  0.30386357  0.83108528  0.36812106     0.36500
N705        N  0.31687298  0.83075532  0.40976923    -0.90100
H706        H  0.27501840  0.86040794  0.38715851     0.17600
H707        H  0.30274439  0.79973202  0.26851907     0.17600
N708        N  0.26184008  0.83060142  0.24623154    -0.89200
H709        H  0.29324211  0.81818809  0.42970003     0.34900
H710        H  0.33408706  0.85864564  0.41950253     0.40000
H711        H  0.24614380  0.80248029  0.23653570     0.39700
H712        H  0.28501884  0.84454703  0.22592125     0.34500
C713        C  0.25094183  0.53128159  0.36486604    -0.27200
C714        C  0.21495494  0.51327337  0.34558247    -0.15300
C715        C  0.19951158  0.53577839  0.33286633     0.35400
C716        C  0.22076099  0.57522008  0.33867557    -0.26600
C717        C  0.25777782  0.59283654  0.35532491    -0.15900
C718        C  0.27247639  0.57037532  0.36903341     0.36500
N719        N  0.30997507  0.58728391  0.38630460    -0.90100
H720        H  0.26387093  0.51518800  0.37481825     0.17600
H721        H  0.20927306  0.59232638  0.32770966     0.17600
N722        N  0.16290106  0.51971759  0.31357484    -0.89200
H723        H  0.32601256  0.57970136  0.36736960     0.34900
H724        H  0.30798391  0.57586485  0.41611186     0.40000
H725        H  0.14312835  0.99471439  0.34256059     0.39700
H726        H  0.16348315  0.50738159  0.28504609     0.34500
C727        C  0.34637333  0.68083760  0.20056313    -0.27200
C728        C  0.32313191  0.69109942  0.22252300    -0.15300
C729        C  0.29240090  0.69043955  0.20116250     0.35400
C730        C  0.28408934  0.67727325  0.15969215    -0.26600
C731        C  0.30644957  0.66569445  0.13841240    -0.15900
C732        C  0.33829750  0.66822176  0.15877772     0.36500
N733        N  0.36150935  0.65632400  0.13785299    -0.90100
H734        H  0.36989818  0.68092636  0.21636400     0.17600
H735        H  0.25970276  0.67567884  0.14419351     0.17600
N736        N  0.26923158  0.70278239  0.22150208    -0.89200
H737        H  0.36094180  0.63457699  0.15525537     0.34900
H738        H  0.38939196  0.67908880  0.13812823     0.40000
H739        H  0.24114762  0.68040215  0.22140975     0.39700
H740        H  0.27044141  0.72473184  0.20385348     0.34500
C741        C  0.26678918  0.72808522  0.54622105    -0.27200
C742        C  0.24814491  0.74864906  0.54278838    -0.15300
C743        C  0.23795031  0.75529520  0.50285400     0.35400
C744        C  0.24906210  0.74372211  0.46678399    -0.26600
C745        C  0.27185748  0.72737824  0.47016900    -0.15900
C746        C  0.27936361  0.71801664  0.51014498     0.36500
N747        N  0.30127245  0.69987740  0.51417863    -0.90100
H748        H  0.27479881  0.72298466  0.57686643     0.17600
H749        H  0.24290168  0.75075397  0.43615573     0.17600
N750        N  0.21809133  0.77556540  0.49891917    -0.89200
H751        H  0.28503789  0.67476050  0.53069147     0.34900
H752        H  0.32541421  0.71729421  0.53203171     0.40000
H753        H  0.19300737  0.75868982  0.48230318     0.39700
H754        H  0.23490068  0.79983959  0.48119318     0.34500
C755        C  0.35981202  0.65019855  0.53257805    -0.27200
C756        C  0.39275808  0.67424391  0.55548010    -0.15300
C757        C  0.42359831  0.70470206  0.53461292     0.35400
C758        C  0.41964519  0.71255227  0.49285747    -0.26600
C759        C  0.38586452  0.69004601  0.47091053    -0.15900
C760        C  0.35596086  0.65789990  0.49043600     0.36500
N761        N  0.32111081  0.63439006  0.46821721    -0.90100
H762        H  0.33619060  0.62657413  0.54817761     0.17600
H763        H  0.44283745  0.73699860  0.47778270     0.17600
N764        N  0.45891651  0.72810772  0.55577245    -0.89200
H765        H  0.30856490  0.65046211  0.46155790     0.34900
H766        H  0.30190670  0.61204213  0.48716275     0.40000
H767        H  0.46450466  0.75585978  0.55522386     0.39700
H768        H  0.48041568  0.72706950  0.53898440     0.34500
O769        O  0.79710657  0.19312296  0.29351986    -0.82700
C770        C  0.87997092  0.20451628  0.43082963     0.96700
O771        O  0.86493897  0.18236313  0.40011675    -0.71800
O772        O  0.81662256  0.14929764  0.33879011    -0.75400
Al773      Al  0.86132860  0.19745320  0.34501626     1.49000
C774        C  0.78437419  0.13493352  0.35583812     0.91900
O775        O  0.77538596  0.21634085  0.40256687    -0.81600
O776        O  0.84186522  0.28974874  0.37705684    -0.75200
Al777      Al  0.79098705  0.20592258  0.34963262     1.90100
O778        O  0.82683504  0.23947953  0.44094885    -0.74200
O779        O  0.90643864  0.28798549  0.36120393    -0.74100
O780        O  0.88905100  0.23885718  0.42849039    -0.79700
O781        O  0.91266701  0.23933776  0.34759304    -0.77900
O782        O  0.83877717  0.22179782  0.36429481    -1.14100
O783        O  0.85754315  0.20994027  0.28801405    -0.73300
C784        C  0.82572031  0.20040852  0.27109545     0.97400
C785        C  0.79174343  0.22663255  0.43774055     0.93800
Al786      Al  0.86399285  0.26093928  0.39875025     1.55600
O787        O  0.77234700  0.15578167  0.36940948    -0.77900
C788        C  0.92731810  0.27455347  0.35166035     0.98000
C789        C  0.81867471  0.28384338  0.34749408     0.92900
O790        O  0.80301217  0.25297025  0.32803777    -0.83200
O791        O  0.70291300  0.27944818  0.72103366    -0.82700
C792        C  0.72064920  0.35939185  0.57695741     0.96700
O793        O  0.69531913  0.34224333  0.60463062    -0.71800
O794        O  0.65737770  0.29289380  0.66557562    -0.75400
Al795      Al  0.70565155  0.33925317  0.66256126     1.49000
C796        C  0.64650826  0.25965536  0.65367009     0.91900
O797        O  0.73463252  0.25724313  0.61751619    -0.81600
O798        O  0.80409453  0.32395932  0.64364619    -0.75200
Al799      Al  0.71982540  0.27282321  0.66754210     1.90100
O800        O  0.75640487  0.30676910  0.57653526    -0.74200
O801        O  0.79850078  0.38703685  0.65603564    -0.74100
O802        O  0.75485104  0.36886602  0.58413594    -0.79700
O803        O  0.74696788  0.39046786  0.66277741    -0.77900
O804        O  0.73367381  0.31886701  0.64959930    -1.14100
O805        O  0.71371303  0.33748573  0.72146914    -0.73300
C806        C  0.70670229  0.30785039  0.74095789     0.97400
C807        C  0.74500462  0.27236543  0.58180521     0.93800
Al808      Al  0.77517479  0.34459465  0.61810301     1.55600
O809        O  0.67036971  0.25019143  0.64397455    -0.77900
C810        C  0.78286475  0.40641412  0.66321623     0.98000
C811        C  0.79765674  0.30207943  0.67446876     0.92900
O812        O  0.76667362  0.28869178  0.69373968    -0.83200
O813        O  0.91532833  0.19991121  0.62280967    -0.82700
C814        C  0.84483211  0.12049705  0.76410192     0.96700
O815        O  0.83776096  0.13657422  0.73470803    -0.71800
O816        O  0.85278908  0.18503405  0.67352913    -0.75400
Al817      Al  0.85424440  0.13917455  0.67812006     1.49000
C818        C  0.87437748  0.21792630  0.68734148     0.91900
O819        O  0.96422026  0.22207912  0.72926500    -0.81600
O820        O  0.96661203  0.15467693  0.70511791    -0.75200
Al821      Al  0.93618244  0.20647005  0.67758756     1.90100
O822        O  0.93389981  0.17224142  0.76939856    -0.74200
O823        O  0.89851790  0.09241485  0.69022213    -0.74100
O824        O  0.86942988  0.11067615  0.75934894    -0.79700
O825        O  0.84338517  0.08757547  0.67926177    -0.77900
O826        O  0.90239033  0.16012114  0.69433854    -1.14100
O827        O  0.86768913  0.14135331  0.62025976    -0.73300
C828        C  0.89179902  0.17138800  0.60189097     0.97400
C829        C  0.95771516  0.20670055  0.76492845     0.93800
Al830      Al  0.91605297  0.13456421  0.72792082     1.55600
O831        O  0.90783449  0.22821972  0.69829918    -0.77900
C832        C  0.86367062  0.07236340  0.68119216     0.98000
C833        C  0.98410762  0.17626863  0.67464438     0.92900
O834        O  0.96900439  0.19145436  0.65440748    -0.83200
O835        O  0.58785949  0.29272037  0.05080679    -0.82700
C836        C  0.65934824  0.27888642  0.91328721     0.96700
O837        O  0.66698540  0.30307207  0.94199388    -0.71800
O838        O  0.65303755  0.33918307  0.00284204    -0.75400
Al839      Al  0.64926952  0.29057911  0.99832147     1.49000
C840        C  0.63320303  0.35199274  0.98819271     0.91900
O841        O  0.54337607  0.26811794  0.94167553    -0.81600
O842        O  0.53663976  0.19362498  0.97333569    -0.75200
Al843      Al  0.56888934  0.27941344  0.99476378     1.90100
O844        O  0.56841946  0.24029014  0.90615309    -0.74200
O845        O  0.60438229  0.19922023  0.98814148    -0.74100
O846        O  0.63316371  0.24489796  0.91798381    -0.79700
O847        O  0.65938804  0.24952276  0.99879540    -0.77900
O848        O  0.60124517  0.26404618  0.98091739    -1.14100
O849        O  0.63403400  0.27999858  0.05543539    -0.73300
C850        C  0.61052940  0.28740090  0.07279778     0.97400
C851        C  0.54780743  0.25480388  0.90780484     0.93800
Al852      Al  0.58681805  0.22299812  0.94941155     1.55600
O853        O  0.60039385  0.32968449  0.97454337    -0.77900
C854        C  0.63904423  0.21397924  0.99782022     0.98000
C855        C  0.51839717  0.20021188  0.00094879     0.92900
O856        O  0.53242300  0.23251955  0.01691481    -0.83200
O857        O  0.80480215  0.08691570  0.95781890    -0.82700
C858        C  0.78880459  0.15013167  0.09987432     0.96700
O859        O  0.81250603  0.15877488  0.07031864    -0.71800
O860        O  0.84875695  0.14717840  0.00842942    -0.75400
Al861      Al  0.80012220  0.14384738  0.01355652     1.49000
C862        C  0.86107306  0.12690871  0.02291826     0.91900
O863        O  0.77523227  0.03480726  0.06262310    -0.81600
O864        O  0.70312113  0.02971517  0.03389214    -0.75200
Al865      Al  0.78891470  0.06445066  0.01214584     1.90100
O866        O  0.75046726  0.06036820  0.10237728    -0.74200
O867        O  0.70780677  0.09849983  0.02367409    -0.74100
O868        O  0.75412005  0.12494680  0.09493423    -0.79700
O869        O  0.75874611  0.15350148  0.01520196    -0.77900
O870        O  0.77331427  0.09564028  0.02859561    -1.14100
O871        O  0.79005044  0.13150475  0.95526883    -0.73300
C872        C  0.79903151  0.10971266  0.93683545     0.97400
C873        C  0.76334920  0.03856180  0.09787700     0.93800
Al874      Al  0.73211588  0.07963984  0.06064067     1.55600
O875        O  0.83827938  0.09424250  0.03593805    -0.77900
C876        C  0.72295555  0.13349040  0.01658020     0.98000
C877        C  0.71068243  0.01396446  0.00393852     0.92900
O878        O  0.74263388  0.03114731  0.98642852    -0.83200
O879        O  0.72245127  0.40109482  0.38137146    -0.82700
C880        C  0.63287649  0.33342918  0.24530067     0.96700
O881        O  0.64948389  0.32532613  0.27338073    -0.71800
O882        O  0.70096126  0.33842470  0.33279022    -0.75400
Al883      Al  0.65612537  0.34290046  0.32969075     1.49000
C884        C  0.73394021  0.35789117  0.31770090     0.91900
O885        O  0.74160779  0.44894414  0.27357781    -0.81600
O886        O  0.67735319  0.45707585  0.30570093    -0.75200
Al887      Al  0.72716009  0.42134492  0.32593955     1.90100
O888        O  0.68872983  0.42271928  0.23741366    -0.74200
O889        O  0.61194184  0.39014419  0.32112498    -0.74100
O890        O  0.62600130  0.35998785  0.25056048    -0.79700
O891        O  0.60534843  0.33466632  0.33140085    -0.77900
O892        O  0.67883485  0.39041444  0.31245185    -1.14100
O893        O  0.66191006  0.35795987  0.38704063    -0.73300
C894        C  0.69390864  0.37970293  0.40386166     0.97400
C895        C  0.72405983  0.44443403  0.23940138     0.93800
Al896      Al  0.65313432  0.40623303  0.28164566     1.55600
O897        O  0.74448917  0.38994293  0.30263713    -0.77900
C898        C  0.59120360  0.35578845  0.33100215     0.98000
C899        C  0.70210700  0.47297759  0.33434122     0.92900
O900        O  0.71652207  0.45573053  0.35140304    -0.83200
C901        C  0.76648945  0.50650287  0.20667179    -0.27200
C902        C  0.74371498  0.46731091  0.20200986    -0.15300
C903        C  0.73419705  0.45171050  0.16125373     0.35400
C904        C  0.74559016  0.47555042  0.12609315    -0.26600
C905        C  0.76163699  0.01533641  0.13388062    -0.15900
C906        C  0.77479747  0.03151779  0.17381271     0.36500
N907        N  0.79636679  0.07163402  0.17856733    -0.90100
H908        H  0.77432658  0.02105314  0.24007192     0.17600
H909        H  0.73647285  0.46329837  0.09508776     0.17600
N910        N  0.71165844  0.41171244  0.15562337    -0.89200
H911        H  0.82232523  0.07868356  0.19245982     0.34900
H912        H  0.78174407  0.07968414  0.19916106     0.40000
H913        H  0.72690354  0.40317176  0.13669560     0.39700
H914        H  0.68689570  0.40572744  0.13953532     0.34500
C915        C  0.64020618  0.29189304  0.14227910    -0.27200
C916        C  0.61118210  0.29234885  0.11909463    -0.15300
C917        C  0.58544912  0.30034659  0.14058661     0.35400
C918        C  0.59132230  0.31047002  0.18292347    -0.26600
C919        C  0.62241274  0.31336156  0.20473791    -0.15900
C920        C  0.64617076  0.30260136  0.18464539     0.36500
N921        N  0.67798226  0.30495692  0.20617431    -0.90100
H922        H  0.65987402  0.28526699  0.12702265     0.17600
H923        H  0.57246047  0.31812237  0.19834565     0.17600
N924        N  0.55375016  0.29968210  0.12052235    -0.89200
H925        H  0.70255631  0.32362386  0.18963065     0.34900
H926        H  0.67524344  0.27830336  0.20522463     0.40000
H927        H  0.53687575  0.27326667  0.10653291     0.39700
H928        H  0.56358428  0.32083948  0.09789881     0.34500
C929        C  0.64234704  0.40929869  0.02568617    -0.27200
C930        C  0.64801174  0.39318420  0.98948046    -0.15300
C931        C  0.67029379  0.41691049  0.95674133     0.35400
C932        C  0.68760170  0.45630934  0.96113249    -0.26600
C933        C  0.68366575  0.47292176  0.99825737    -0.15900
C934        C  0.65992692  0.44874074  0.03043152     0.36500
N935        N  0.65521544  0.46393342  0.06899840    -0.90100
H936        H  0.62538532  0.39117889  0.05121938     0.17600
H937        H  0.70586271  0.47401807  0.93608636     0.17600
N938        N  0.67654494  0.40110300  0.91957556    -0.89200
H939        H  0.66470866  0.45398995  0.09357188     0.34900
H940        H  0.62621649  0.45359742  0.07338593     0.40000
H941        H  0.70578493  0.41213225  0.91628781     0.39700
H942        H  0.66719667  0.40990799  0.89382736     0.34500
C943        C  0.69502202  0.20934272  0.02099890    -0.27200
C944        C  0.65760770  0.19083341  0.00565924    -0.15300
C945        C  0.64089010  0.15215391  0.99496312     0.35400
C946        C  0.66195826  0.13344409  0.99902258    -0.26600
C947        C  0.69994241  0.15268589  0.01296534    -0.15900
C948        C  0.71600568  0.19100739  0.02476991     0.36500
N949        N  0.75374216  0.21165317  0.04149337    -0.90100
H950        H  0.70864872  0.23879331  0.02989231     0.17600
H951        H  0.64878463  0.10399179  0.99031047     0.17600
N952        N  0.60293005  0.13187766  0.97898734    -0.89200
H953        H  0.75230127  0.22125988  0.07150224     0.34900
H954        H  0.76978348  0.23511798  0.02239448     0.40000
H955        H  0.58692039  0.10884716  0.99865730     0.39700
H956        H  0.60376166  0.12152850  0.94920577     0.34500
C957        C  0.92554145  0.15489718  0.05499416    -0.27200
C958        C  0.90192976  0.14017552  0.01978275    -0.15300
C959        C  0.91784726  0.14060167  0.98032489     0.35400
C960        C  0.95739526  0.15726447  0.97640614    -0.26600
C961        C  0.98144322  0.17432674  0.01098405    -0.15900
C962        C  0.96524237  0.17236406  0.05079419     0.36500
N963        N  0.98905698  0.18885474  0.08677308    -0.90100
H964        H  0.91331806  0.15433957  0.08539746     0.17600
H965        H  0.96960099  0.15927008  0.94558294     0.17600
N966        N  0.89378756  0.12534917  0.94406349    -0.89200
H967        H  0.98156406  0.16768214  0.10911885     0.34900
H968        H  0.47078466  0.22384390  0.07792144     0.40000
H969        H  0.87624439  0.09639599  0.94885900     0.39700
H970        H  0.90993216  0.12827323  0.91732869     0.34500
C971        C  0.51938930  0.24898954  0.79431963    -0.27200
C972        C  0.98043338  0.22778714  0.80153380    -0.15300
C973        C  0.96426816  0.21976938  0.84197941     0.35400
C974        C  0.98794274  0.23157216  0.87723399    -0.26600
C975        C  0.52562944  0.25206516  0.87033482    -0.15900
C976        C  0.54247848  0.26175314  0.83004911     0.36500
N977        N  0.58286390  0.28354430  0.82456186    -0.90100
H978        H  0.53263477  0.25469845  0.76359157     0.17600
H979        H  0.97532831  0.22330903  0.90820213     0.17600
N980        N  0.92385629  0.19826195  0.84718495    -0.89200
H981        H  0.59517540  0.26866145  0.83672315     0.34900
H982        H  0.59313723  0.30869087  0.84139736     0.40000
H983        H  0.91556334  0.21417107  0.86518823     0.39700
H984        H  0.91710711  0.17387923  0.86397203     0.34500
C985        C  0.82013213  0.14251174  0.82270952    -0.27200
C986        C  0.82596566  0.11438532  0.80533936    -0.15300
C987        C  0.81863539  0.08314414  0.82999977     0.35400
C988        C  0.80785485  0.08148180  0.87197337    -0.26600
C989        C  0.80465110  0.11081230  0.89059292    -0.15900
C990        C  0.80981920  0.14114504  0.86520537     0.36500
N991        N  0.80639465  0.17140247  0.88266750    -0.90100
H992        H  0.82588641  0.16681486  0.80403080     0.17600
H993        H  0.80319527  0.05742325  0.89041919     0.17600
N994        N  0.82274085  0.05321240  0.81268019    -0.89200
H995        H  0.78569755  0.17351201  0.86561287     0.34900
H996        H  0.83229654  0.19641043  0.87853002     0.40000
H997        H  0.79676082  0.02810327  0.81576754     0.39700
H998        H  0.84292502  0.05087735  0.83050446     0.34500
C999        C  0.68968912  0.32490603  0.85495490    -0.27200
C1000       C  0.67945996  0.28979997  0.87262000    -0.15300
C1001       C  0.68346474  0.26319204  0.84859931     0.35400
C1002       C  0.69420559  0.27080407  0.80640151    -0.26600
C1003       C  0.70115492  0.30450807  0.78729234    -0.15900
C1004       C  0.70051154  0.33250966  0.81250464     0.36500
N1005       N  0.70961761  0.36814888  0.79508392    -0.90100
H1006       H  0.68706645  0.34566570  0.87336433     0.17600
H1007       H  0.69589760  0.24948109  0.78805436     0.17600
N1008       N  0.67551464  0.22799869  0.86687694    -0.89200
H1009       H  0.73226039  0.38926416  0.81221303     0.34900
H1010       H  0.68614814  0.37163032  0.79917700     0.40000
H1011       H  0.69529318  0.23409021  0.89072950     0.39700
H1012       H  0.67943819  0.21130313  0.84482294     0.34500
C1013       C  0.59040341  0.21178177  0.69285792    -0.27200
C1014       C  0.60575876  0.23104230  0.65513686    -0.15300
C1015       C  0.58149289  0.22486943  0.62112860     0.35400
C1016       C  0.54210415  0.20192696  0.62609472    -0.26600
C1017       C  0.52625731  0.18530509  0.66496309    -0.15900
C1018       C  0.55090202  0.18894619  0.69810813     0.36500
N1019       N  0.53607211  0.17172098  0.73800407    -0.90100
H1020       H  0.60904624  0.21605074  0.71911521     0.17600
H1021       H  0.52374962  0.19929316  0.60015745     0.17600
N1022       N  0.59645491  0.24330980  0.58203950    -0.89200
H1023       H  0.54590739  0.19296209  0.76079833     0.34900
H1024       H  0.54702939  0.15425162  0.74493033     0.40000
H1025       H  0.58318233  0.25868958  0.57514584     0.39700
H1026       H  0.58852726  0.22258294  0.55885920     0.34500
C1027       C  0.78569384  0.46828228  0.66450910    -0.27200
C1028       C  0.80528763  0.44849777  0.66831524    -0.15300
C1029       C  0.84507083  0.46958637  0.67381269     0.35400
C1030       C  0.86600037  0.01357751  0.66223803    -0.26600
C1031       C  0.84534061  0.03042289  0.67653921    -0.15900
C1032       C  0.80710796  0.00656099  0.68862741     0.36500
N1033       N  0.78491703  0.02199076  0.70438961    -0.90100
H1034       H  0.75527225  0.45282352  0.65953273     0.17600
H1035       H  0.89536401  0.03130147  0.65281695     0.17600
N1036       N  0.86636397  0.45083309  0.67780998    -0.89200
H1037       H  0.77558849  0.01141113  0.73460276     0.34900
H1038       H  0.76104476  0.01257020  0.68518157     0.40000
H1039       H  0.88052895  0.45855891  0.70664651     0.39700
H1040       H  0.88680997  0.46061293  0.65398566     0.34500
C1041       C  0.85232303  0.29337502  0.65555734    -0.27200
C1042       C  0.82351452  0.28729980  0.68431420    -0.15300
C1043       C  0.81506996  0.26098037  0.71723506     0.35400
C1044       C  0.83341920  0.23991253  0.71894334    -0.26600
C1045       C  0.86038611  0.24464458  0.68877884    -0.15900
C1046       C  0.87051268  0.27209092  0.65741537     0.36500
N1047       N  0.89765975  0.27680368  0.62590346    -0.90100
H1048       H  0.85905648  0.31287288  0.62977495     0.17600
H1049       H  0.82551726  0.21873018  0.74312380     0.17600
N1050       N  0.78669986  0.25420629  0.74808031    -0.89200
H1051       H  0.91957541  0.30489525  0.62644574     0.34900
H1052       H  0.88432517  0.27142485  0.59657753     0.40000
H1053       H  0.79929551  0.25932430  0.77775792     0.39700
H1054       H  0.76559265  0.22575971  0.74649278     0.34500
C1055       C  0.73839049  0.39927591  0.51280617    -0.27200
C1056       C  0.71096241  0.36780768  0.53509566    -0.15300
C1057       C  0.67648553  0.34277343  0.51509582     0.35400
C1058       C  0.67066483  0.34824545  0.47298699    -0.26600
C1059       C  0.69889335  0.37840225  0.44988352    -0.15900
C1060       C  0.73255411  0.40503115  0.47069970     0.36500
N1061       N  0.76111257  0.43777677  0.44928246    -0.90100
H1062       H  0.76490936  0.41917554  0.52787504     0.17600
H1063       H  0.64447225  0.32764471  0.45790213     0.17600
N1064       N  0.64790651  0.31046276  0.53660957    -0.89200
H1065       H  0.78650348  0.43738903  0.45015821     0.34900
H1066       H  0.76520771  0.46159876  0.46572300     0.40000
H1067       H  0.64309881  0.28658166  0.51966847     0.39700
H1068       H  0.62306504  0.31182023  0.53589593     0.34500
C1069       C  0.99126183  0.28571574  0.37031116    -0.27200
C1070       C  0.96956836  0.29858503  0.34970268    -0.15300
C1071       C  0.98871385  0.33295038  0.32777210     0.35400
C1072       C  0.52745904  0.34937538  0.31517779    -0.26600
C1073       C  0.54939762  0.33834767  0.33881395    -0.15900
C1074       C  0.53020059  0.30666887  0.36531067     0.36500
N1075       N  0.55123950  0.29533595  0.39131190    -0.90100
H1076       H  0.97708758  0.26003225  0.38863373     0.17600
H1077       H  0.54149093  0.37313863  0.29402545     0.17600
N1078       N  0.96750081  0.34732728  0.30734645    -0.89200
H1079       H  0.54323442  0.26759200  0.38351224     0.34900
H1080       H  0.54351779  0.29573508  0.42256111     0.40000
H1081       H  0.97394953  0.34977211  0.27530492     0.39700
H1082       H  0.97671433  0.37432831  0.31917455     0.34500
C1083       C  0.77882204  0.34879784  0.36142142    -0.27200
C1084       C  0.76120248  0.34456185  0.32233808    -0.15300
C1085       C  0.76751973  0.32511189  0.29005063     0.35400
C1086       C  0.78977317  0.30862724  0.29772598    -0.26600
C1087       C  0.80565217  0.31076617  0.33757373    -0.15900
C1088       C  0.80096558  0.33212009  0.36933354     0.36500
N1089       N  0.81641243  0.33488758  0.41041206    -0.90100
H1090       H  0.77402628  0.36379052  0.38652605     0.17600
H1091       H  0.79276968  0.29214690  0.27298508     0.17600
N1092       N  0.74987995  0.32040393  0.25003042    -0.89200
H1093       H  0.79401962  0.32370198  0.43197476     0.34900
H1094       H  0.83413627  0.36346295  0.41747207     0.40000
H1095       H  0.73319174  0.29149244  0.24416061     0.39700
H1096       H  0.77125548  0.33187039  0.22725146     0.34500
C1097       C  0.75858294  0.03335074  0.36109084    -0.27200
C1098       C  0.72000613  0.01397258  0.34959140    -0.15300
C1099       C  0.70139952  0.03485244  0.34431543     0.35400
C1100       C  0.72202782  0.07431792  0.34950122    -0.26600
C1101       C  0.76118936  0.09341656  0.35833115    -0.15900
C1102       C  0.77921572  0.07243564  0.36488711     0.36500
N1103       N  0.81895627  0.09082880  0.37448880    -0.90100
H1104       H  0.77380987  0.01833196  0.36510686     0.17600
H1105       H  0.70791832  0.09026124  0.34426698     0.17600
N1106       N  0.66200096  0.01701510  0.33355463    -0.89200
H1107       H  0.83237232  0.08405091  0.35092469     0.34900
H1108       H  0.82220690  0.07997918  0.40281376     0.40000
H1109       H  0.64635986  0.49640890  0.35241241     0.39700
H1110       H  0.65803329  0.00438442  0.30408115     0.34500
C1111       C  0.84405239  0.18602298  0.20155182    -0.27200
C1112       C  0.82011371  0.19442403  0.22504028    -0.15300
C1113       C  0.78816032  0.19241352  0.20509664     0.35400
C1114       C  0.77896674  0.17896607  0.16376008    -0.26600
C1115       C  0.80173725  0.16860875  0.14121481    -0.15900
C1116       C  0.83515752  0.17324195  0.15985647     0.36500
N1117       N  0.85904820  0.16304207  0.13731906    -0.90100
H1118       H  0.86868722  0.18744697  0.21617196     0.17600
H1119       H  0.75362007  0.17617779  0.14938258     0.17600
N1120       N  0.76467976  0.20365734  0.22679511    -0.89200
H1121       H  0.86075570  0.14231739  0.15441143     0.34900
H1122       H  0.88627959  0.18676495  0.13584140     0.40000
H1123       H  0.73695612  0.18064785  0.22755066     0.39700
H1124       H  0.76450117  0.22514854  0.20957224     0.34500
C1125       C  0.76887918  0.23335349  0.55098117    -0.27200
C1126       C  0.74739199  0.25094642  0.54625139    -0.15300
C1127       C  0.73470541  0.25378390  0.50613624     0.35400
C1128       C  0.74594008  0.24134890  0.47086317    -0.26600
C1129       C  0.77098178  0.22761637  0.47513586    -0.15900
C1130       C  0.78136410  0.22227232  0.51564787     0.36500
N1131       N  0.80609589  0.20734872  0.52085637    -0.90100
H1132       H  0.77884080  0.23127260  0.58184383     0.17600
H1133       H  0.73791051  0.24571579  0.43988610     0.17600
N1134       N  0.71188727  0.27087565  0.50107897    -0.89200
H1135       H  0.79227612  0.18340043  0.53972215     0.34900
H1136       H  0.83043362  0.22741205  0.53683620     0.40000
H1137       H  0.68660354  0.25140581  0.48625466     0.39700
H1138       H  0.72634804  0.29413358  0.48124853     0.34500
C1139       C  0.85876284  0.15107873  0.53267155    -0.27200
C1140       C  0.89174307  0.17490712  0.55563148    -0.15300
C1141       C  0.92314057  0.20467236  0.53457281     0.35400
C1142       C  0.91957538  0.21242235  0.49266922    -0.26600
C1143       C  0.88563762  0.19045506  0.47086207    -0.15900
C1144       C  0.85548553  0.15866963  0.49041846     0.36500
N1145       N  0.82053826  0.13571583  0.46846632    -0.90100
H1146       H  0.83457410  0.12790789  0.54812117     0.17600
H1147       H  0.94302807  0.23659667  0.47752743     0.17600
N1148       N  0.95849224  0.22774617  0.55581371    -0.89200
H1149       H  0.79881556  0.13659134  0.48491682     0.34900
H1150       H  0.81483057  0.10792207  0.46893654     0.40000
H1151       H  0.96466731  0.25568486  0.55478711     0.39700
H1152       H  0.97977804  0.22603053  0.53939765     0.34500
O1153       O  0.79960098  0.69312164  0.29134657    -0.82700
C1154       C  0.88189006  0.70479005  0.43020640     0.96700
O1155       O  0.86621257  0.68213566  0.40003379    -0.71800
O1156       O  0.81776417  0.64852392  0.33887269    -0.75400
Al1157     Al  0.86259824  0.69639587  0.34460063     1.49000
C1158       C  0.78518901  0.63455878  0.35488359     0.91900
O1159       O  0.77736745  0.71724246  0.39990335    -0.81600
O1160       O  0.84565043  0.79076581  0.37348208    -0.75200
Al1161     Al  0.79310221  0.70632215  0.34734174     1.90100
O1162       O  0.82877489  0.74103893  0.43854082    -0.74200
O1163       O  0.90943675  0.78730923  0.35993328    -0.74100
O1164       O  0.89036991  0.73892727  0.42763979    -0.79700
O1165       O  0.91341320  0.73749979  0.34643948    -0.77900
O1166       O  0.84067407  0.72167806  0.36274314    -1.14100
O1167       O  0.85958901  0.70824031  0.28753127    -0.73300
C1168       C  0.82842661  0.69954405  0.26976494     0.97400
C1169       C  0.79368486  0.72800002  0.43504651     0.93800
Al1170     Al  0.86634123  0.76129142  0.39673227     1.55600
O1171       O  0.77332596  0.65585975  0.36741430    -0.77900
C1172       C  0.92929857  0.77280060  0.35022226     0.98000
C1173       C  0.82267036  0.78506564  0.34379268     0.92900
O1174       O  0.80588115  0.75363521  0.32538035    -0.83200
O1175       O  0.70904577  0.78000673  0.72208424    -0.82700
C1176       C  0.72729860  0.86006613  0.57863363     0.96700
O1177       O  0.70208442  0.84368248  0.60648550    -0.71800
O1178       O  0.66389939  0.79541560  0.66669023    -0.75400
Al1179     Al  0.71219403  0.84057213  0.66406053     1.49000
C1180       C  0.65153001  0.76221344  0.65400455     0.91900
O1181       O  0.73788287  0.75701212  0.61689959    -0.81600
O1182       O  0.81059030  0.82599095  0.64676456    -0.75200
Al1183     Al  0.72464046  0.77275014  0.66798017     1.90100
O1184       O  0.76468745  0.80842545  0.57867855    -0.74200
O1185       O  0.80489942  0.88902412  0.65759160    -0.74100
O1186       O  0.76146906  0.86935556  0.58557027    -0.79700
O1187       O  0.75313055  0.89171824  0.66449031    -0.77900
O1188       O  0.73986460  0.81969005  0.65104312    -1.14100
O1189       O  0.71975974  0.83815275  0.72265835    -0.73300
C1190       C  0.71210508  0.80821152  0.74190653     0.97400
C1191       C  0.75055301  0.77341139  0.58216316     0.93800
Al1192     Al  0.78193651  0.84592485  0.62024492     1.55600
O1193       O  0.67441257  0.75113624  0.64556893    -0.77900
C1194       C  0.78894602  0.90809662  0.66479912     0.98000
C1195       C  0.80356950  0.80222290  0.67559618     0.92900
O1196       O  0.77156915  0.78601503  0.69308733    -0.83200
O1197       O  0.92204217  0.70006229  0.62172617    -0.82700
C1198       C  0.84672638  0.62041001  0.76080355     0.96700
O1199       O  0.84136456  0.63764475  0.73131669    -0.71800
O1200       O  0.85911103  0.68674243  0.67031122    -0.75400
Al1201     Al  0.85866910  0.64000700  0.67524063     1.49000
C1202       C  0.88082038  0.71892605  0.68567935     0.91900
O1203       O  0.96782043  0.71916324  0.72993454    -0.81600
O1204       O  0.96879486  0.65068330  0.70476644    -0.75200
Al1205     Al  0.94138822  0.70523105  0.67729108     1.90100
O1206       O  0.93567867  0.66848462  0.76832518    -0.74200
O1207       O  0.89922306  0.58980419  0.68805478    -0.74100
O1208       O  0.87013463  0.60894318  0.75663382    -0.79700
O1209       O  0.84575346  0.58804015  0.67621926    -0.77900
O1210       O  0.90620185  0.65900469  0.69269314    -1.14100
O1211       O  0.87322074  0.64219060  0.61796854    -0.73300
C1212       C  0.89807703  0.67220404  0.60019674     0.97400
C1213       C  0.95986912  0.70291616  0.76516669     0.93800
Al1214     Al  0.91763438  0.63168590  0.72631127     1.55600
O1215       O  0.91370183  0.72795398  0.69763506    -0.77900
C1216       C  0.86444736  0.57121491  0.67807810     0.98000
C1217       C  0.98772793  0.67302989  0.67528218     0.92900
O1218       O  0.97387397  0.68936306  0.65492407    -0.83200
O1219       O  0.59387294  0.79656320  0.05182364    -0.82700
C1220       C  0.66342705  0.77950582  0.91438194     0.96700
O1221       O  0.67097733  0.80456281  0.94189201    -0.71800
O1222       O  0.65655209  0.84191838  0.99958471    -0.75400
Al1223     Al  0.65509537  0.79435350  0.99885628     1.49000
C1224       C  0.63493468  0.85273688  0.98502842     0.91900
O1225       O  0.54530367  0.76408988  0.94568980    -0.81600
O1226       O  0.54337743  0.69450544  0.97867327    -0.75200
Al1227     Al  0.57310508  0.77945079  0.99751072     1.90100
O1228       O  0.57333149  0.73929763  0.90991757    -0.74200
O1229       O  0.61218138  0.70285661  0.99354029    -0.74100
O1230       O  0.63871966  0.74538752  0.92120137    -0.79700
O1231       O  0.66699341  0.75415890  0.00163606    -0.77900
O1232       O  0.60679283  0.76577564  0.98345386    -1.14100
O1233       O  0.64177186  0.78651646  0.05679899    -0.73300
C1234       C  0.61775937  0.79337959  0.07387398     0.97400
C1235       C  0.55059024  0.75132207  0.91184528     0.93800
Al1236     Al  0.59300759  0.72400240  0.95370149     1.55600
O1237       O  0.60152883  0.82887810  0.97433252    -0.77900
C1238       C  0.64720240  0.71847990  0.00182502     0.98000
C1239       C  0.52574143  0.70085365  0.00724394     0.92900
O1240       O  0.53984555  0.73311369  0.02326437    -0.83200
O1241       O  0.80372888  0.58361564  0.95282366    -0.82700
C1242       C  0.79676848  0.65157375  0.09777013     0.96700
O1243       O  0.82025434  0.65836862  0.06841834    -0.71800
O1244       O  0.85347375  0.64403173  0.00544754    -0.75400
Al1245     Al  0.80636285  0.64372132  0.01144199     1.49000
C1246       C  0.86398685  0.62155810  0.01743833     0.91900
O1247       O  0.77606806  0.53275340  0.05894291    -0.81600
O1248       O  0.70634395  0.53152480  0.03653718    -0.75200
Al1249     Al  0.78909294  0.56171715  0.00759059     1.90100
O1250       O  0.75734780  0.56264795  0.10087369    -0.74200
O1251       O  0.71416959  0.60159468  0.02389594    -0.74100
O1252       O  0.76183571  0.62769218  0.09289689    -0.79700
O1253       O  0.76629629  0.65576308  0.01424906    -0.77900
O1254       O  0.77760804  0.59557284  0.02613066    -1.14100
O1255       O  0.79538463  0.63248306  0.95306044    -0.73300
C1256       C  0.80091287  0.60888927  0.93323433     0.97400
C1257       C  0.76724498  0.53852938  0.09520384     0.93800
Al1258     Al  0.73804833  0.58195234  0.06023495     1.55600
O1259       O  0.83987190  0.58846800  0.02797526    -0.77900
C1260       C  0.73037343  0.63670382  0.01652387     0.98000
C1261       C  0.71058510  0.51408734  0.00598204     0.92900
O1262       O  0.74050190  0.53026699  0.98448834    -0.83200
O1263       O  0.72768439  0.90317156  0.38386950    -0.82700
C1264       C  0.63687564  0.83570120  0.24824092     0.96700
O1265       O  0.65495347  0.82796823  0.27477202    -0.71800
O1266       O  0.70813325  0.84140768  0.33186097    -0.75400
Al1267     Al  0.66196524  0.84382645  0.33172438     1.49000
C1268       C  0.74104483  0.86253475  0.31720835     0.91900
O1269       O  0.74299443  0.95202002  0.27716087    -0.81600
O1270       O  0.67817606  0.95686323  0.31152885    -0.75200
Al1271     Al  0.73077438  0.92404561  0.32933459     1.90100
O1272       O  0.68916836  0.92390698  0.24247708    -0.74200
O1273       O  0.61525033  0.88887436  0.32923495    -0.74100
O1274       O  0.62780350  0.86031901  0.25631730    -0.79700
O1275       O  0.61031684  0.83373660  0.33582055    -0.77900
O1276       O  0.68268658  0.89161359  0.31628299    -1.14100
O1277       O  0.66826224  0.85714791  0.38941425    -0.73300
C1278       C  0.69991694  0.87996652  0.40615279     0.97400
C1279       C  0.72437108  0.94658177  0.24352984     0.93800
Al1280     Al  0.65488706  0.90632335  0.28766834     1.55600
O1281       O  0.75057734  0.89514086  0.30466911    -0.77900
C1282       C  0.59529065  0.85413242  0.33782939     0.98000
C1283       C  0.70307322  0.97321827  0.33977425     0.92900
O1284       O  0.71815005  0.95648137  0.35654533    -0.83200
C1285       C  0.76572647  0.00824022  0.20924388    -0.27200
C1286       C  0.74250302  0.96901511  0.20547421    -0.15300
C1287       C  0.73119852  0.95275959  0.16515900     0.35400
C1288       C  0.74138370  0.97601207  0.12962383    -0.26600
C1289       C  0.76507628  0.51484042  0.13110197    -0.15900
C1290       C  0.77660016  0.53036769  0.17163769     0.36500
N1291       N  0.79737206  0.57040885  0.17743031    -0.90100
H1292       H  0.77375302  0.51882934  0.23783673     0.17600
H1293       H  0.73100506  0.96335150  0.09901320     0.17600
N1294       N  0.70813191  0.91269405  0.16043722    -0.89200
H1295       H  0.82287545  0.57764213  0.19257105     0.34900
H1296       H  0.78162300  0.57766993  0.19728214     0.40000
H1297       H  0.72239658  0.90361342  0.14065564     0.39700
H1298       H  0.68279005  0.90667513  0.14569981     0.34500
C1299       C  0.64454437  0.79512885  0.14426206    -0.27200
C1300       C  0.61826127  0.79918088  0.11992585    -0.15300
C1301       C  0.59432508  0.81025339  0.14025272     0.35400
C1302       C  0.59909867  0.81910249  0.18291284    -0.26600
C1303       C  0.62738413  0.81778006  0.20632918    -0.15900
C1304       C  0.64940242  0.80449717  0.18697407     0.36500
N1305       N  0.67848696  0.80267640  0.20966866    -0.90100
H1306       H  0.66271613  0.78611753  0.12984505     0.17600
H1307       H  0.58148905  0.82877209  0.19742509     0.17600
N1308       N  0.56563778  0.81402236  0.11875079    -0.89200
H1309       H  0.70409597  0.81990149  0.19405730     0.34900
H1310       H  0.67283282  0.77491265  0.20811167     0.40000
H1311       H  0.54626452  0.78818185  0.10511513     0.39700
H1312       H  0.57839216  0.83485899  0.09576159     0.34500
C1313       C  0.63237056  0.90994839  0.00717249    -0.27200
C1314       C  0.64904724  0.89375606  0.98246567    -0.15300
C1315       C  0.68221029  0.91753172  0.95986885     0.35400
C1316       C  0.69940036  0.95678817  0.96401212    -0.26600
C1317       C  0.68502394  0.97341003  0.99188175    -0.15900
C1318       C  0.65022096  0.94947306  0.01235926     0.36500
N1319       N  0.63363088  0.96489633  0.03969991    -0.90100
H1320       H  0.60669330  0.89181482  0.02466897     0.17600
H1321       H  0.72573591  0.97413980  0.94723885     0.17600
N1322       N  0.69918833  0.90178615  0.93352073    -0.89200
H1323       H  0.63112078  0.95339909  0.06958182     0.34900
H1324       H  0.60632371  0.95629726  0.02870828     0.40000
H1325       H  0.72683391  0.91151302  0.94419673     0.39700
H1326       H  0.70089666  0.91191721  0.90305081     0.34500
C1327       C  0.70408680  0.71398025  0.02301867    -0.27200
C1328       C  0.66633763  0.69567849  0.00862320    -0.15300
C1329       C  0.64933324  0.65707494  0.99738349     0.35400
C1330       C  0.67015029  0.63811220  0.00036425    -0.26600
C1331       C  0.70824633  0.65688644  0.01366940    -0.15900
C1332       C  0.72487120  0.69522614  0.02577607     0.36500
N1333       N  0.76284798  0.71532680  0.04188860    -0.90100
H1334       H  0.71796381  0.74341906  0.03202580     0.17600
H1335       H  0.65660257  0.60870818  0.99132781     0.17600
N1336       N  0.61124803  0.63708791  0.98172824    -0.89200
H1337       H  0.76194941  0.72478834  0.07216300     0.34900
H1338       H  0.77884150  0.73889773  0.02292351     0.40000
H1339       H  0.59531134  0.61382984  0.00113034     0.39700
H1340       H  0.61181252  0.62711993  0.95164585     0.34500
C1341       C  0.92773318  0.65375572  0.05082608    -0.27200
C1342       C  0.90477172  0.63384262  0.01665226    -0.15300
C1343       C  0.92152032  0.62913026  0.98011800     0.35400
C1344       C  0.96135420  0.64623517  0.97766069    -0.26600
C1345       C  0.98478164  0.66863414  0.01074986    -0.15900
C1346       C  0.96747063  0.67118420  0.04823771     0.36500
N1347       N  0.99018066  0.69275572  0.08321924    -0.90100
H1348       H  0.91489118  0.65722851  0.07899307     0.17600
H1349       H  0.97415391  0.64450737  0.94852353     0.17600
N1350       N  0.89811991  0.60899176  0.94471105    -0.89200
H1351       H  0.98226133  0.67500072  0.10930660     0.34900
H1352       H  0.48188057  0.72082456  0.09169946     0.40000
H1353       H  0.88052698  0.58091088  0.95377830     0.39700
H1354       H  0.91475959  0.60877202  0.91988771     0.34500
C1355       C  0.52145317  0.74720017  0.79880153    -0.27200
C1356       C  0.98117732  0.72294953  0.80295176    -0.15300
C1357       C  0.96498595  0.71090582  0.84315472     0.35400
C1358       C  0.98842352  0.72292689  0.87851083    -0.26600
C1359       C  0.52746948  0.74659491  0.87468573    -0.15900
C1360       C  0.54417839  0.75979364  0.83482685     0.36500
N1361       N  0.58421369  0.78504731  0.83002778    -0.90100
H1362       H  0.53473683  0.75615709  0.76823307     0.17600
H1363       H  0.97616624  0.71170638  0.90905700     0.17600
N1364       N  0.92503488  0.68519694  0.84798264    -0.89200
H1365       H  0.59873421  0.77182057  0.84076176     0.34900
H1366       H  0.59205041  0.80885676  0.84858859     0.40000
H1367       H  0.91401443  0.69773606  0.86767976     0.39700
H1368       H  0.92132652  0.66094586  0.86283854     0.34500
C1369       C  0.82667178  0.64535883  0.82077906    -0.27200
C1370       C  0.82724908  0.61488906  0.80150615    -0.15300
C1371       C  0.81424432  0.58125765  0.82397781     0.35400
C1372       C  0.80346472  0.57933587  0.86606357    -0.26600
C1373       C  0.80587297  0.61074127  0.88679954    -0.15900
C1374       C  0.81638291  0.64369883  0.86332223     0.36500
N1375       N  0.81865103  0.67616803  0.88287016    -0.90100
H1376       H  0.83672737  0.67144918  0.80366164     0.17600
H1377       H  0.79452557  0.55337279  0.88300696     0.17600
N1378       N  0.81261118  0.54912004  0.80427042    -0.89200
H1379       H  0.80082560  0.68302789  0.86645752     0.34900
H1380       H  0.84651383  0.69863178  0.87980948     0.40000
H1381       H  0.78460257  0.52671857  0.80592714     0.39700
H1382       H  0.82968123  0.54177876  0.82146388     0.34500
C1383       C  0.69014083  0.82388517  0.85430031    -0.27200
C1384       C  0.68194193  0.78968247  0.87286621    -0.15300
C1385       C  0.68698663  0.76353282  0.84934952     0.35400
C1386       C  0.69870748  0.77125940  0.80752390    -0.26600
C1387       C  0.70484838  0.80445057  0.78786374    -0.15900
C1388       C  0.70117560  0.83136348  0.81194771     0.36500
N1389       N  0.70711268  0.86557922  0.79337798    -0.90100
H1390       H  0.68584334  0.84397682  0.87195978     0.17600
H1391       H  0.70179155  0.75031493  0.79005876     0.17600
N1392       N  0.67964551  0.72869392  0.86762941    -0.89200
H1393       H  0.72836179  0.88818937  0.81038985     0.34900
H1394       H  0.68202423  0.86637687  0.79647807     0.40000
H1395       H  0.70443366  0.72724958  0.86547300     0.39700
H1396       H  0.65857946  0.70660681  0.84985179     0.34500
C1397       C  0.59219621  0.69950846  0.66614986    -0.27200
C1398       C  0.60979205  0.73664066  0.65064811    -0.15300
C1399       C  0.58676889  0.75087307  0.63700784     0.35400
C1400       C  0.54733095  0.72875346  0.63995129    -0.26600
C1401       C  0.52939742  0.69267757  0.65820944    -0.15900
C1402       C  0.55221301  0.67767874  0.67071432     0.36500
N1403       N  0.53517123  0.64088627  0.68883014    -0.90100
H1404       H  0.60956922  0.68827321  0.67714567     0.17600
H1405       H  0.53087768  0.74136944  0.63010915     0.17600
N1406       N  0.60328872  0.78851693  0.62132419    -0.89200
H1407       H  0.54666335  0.64347830  0.71879940     0.34900
H1408       H  0.54281865  0.62463190  0.67050323     0.40000
H1409       H  0.59546041  0.80355923  0.64148913     0.39700
H1410       H  0.59099253  0.78708008  0.59216617     0.34500
C1411       C  0.79049184  0.96726943  0.68615322    -0.27200
C1412       C  0.81061212  0.95011805  0.67122158    -0.15300
C1413       C  0.84885012  0.97386298  0.65879622     0.35400
C1414       C  0.86405307  0.50943749  0.67587636    -0.26600
C1415       C  0.84425857  0.52916129  0.67189173    -0.15900
C1416       C  0.80435790  0.50781535  0.66562044     0.36500
N1417       N  0.78243844  0.52605008  0.66061656    -0.90100
H1418       H  0.76109796  0.95003081  0.69573298     0.17600
H1419       H  0.89446074  0.52495091  0.68101956     0.17600
N1420       N  0.87006239  0.95803116  0.64139565    -0.89200
H1421       H  0.75345675  0.50636274  0.65873253     0.34900
H1422       H  0.79001456  0.54003369  0.63170278     0.40000
H1423       H  0.89438058  0.96699454  0.65970090     0.39700
H1424       H  0.87873158  0.96893267  0.61115368     0.34500
C1425       C  0.85647659  0.79241571  0.65309664    -0.27200
C1426       C  0.83061033  0.78878339  0.68464590    -0.15300
C1427       C  0.82552967  0.76538353  0.71955036     0.35400
C1428       C  0.84409389  0.74443478  0.72073207    -0.26600
C1429       C  0.86765256  0.74628121  0.68769822    -0.15900
C1430       C  0.87447392  0.77097074  0.65410031     0.36500
N1431       N  0.89791863  0.77260402  0.61968343    -0.90100
H1432       H  0.86048338  0.80961497  0.62572388     0.17600
H1433       H  0.83868574  0.72532982  0.74663883     0.17600
N1434       N  0.80042220  0.76160888  0.75311988    -0.89200
H1435       H  0.91989266  0.80051253  0.61641364     0.34900
H1436       H  0.88151038  0.76492791  0.59231501     0.40000
H1437       H  0.81593835  0.76926238  0.78109736     0.39700
H1438       H  0.77931913  0.73319960  0.75532429     0.34500
C1439       C  0.74464116  0.89951175  0.51473074    -0.27200
C1440       C  0.71743285  0.86787990  0.53687722    -0.15300
C1441       C  0.68324381  0.84209570  0.51685625     0.35400
C1442       C  0.67743288  0.84748338  0.47476579    -0.26600
C1443       C  0.70531897  0.87816892  0.45188791    -0.15900
C1444       C  0.73882435  0.90510899  0.47268620     0.36500
N1445       N  0.76729125  0.93797072  0.45133613    -0.90100
H1446       H  0.77098989  0.91969784  0.52990592     0.17600
H1447       H  0.65144153  0.82659332  0.45959622     0.17600
N1448       N  0.65504337  0.80929743  0.53831525    -0.89200
H1449       H  0.79280633  0.93779732  0.45231349     0.34900
H1450       H  0.77116639  0.96171999  0.46773480     0.40000
H1451       H  0.65156743  0.78557526  0.52216967     0.39700
H1452       H  0.62953416  0.80926998  0.53607589     0.34500
C1453       C  0.99089120  0.77514641  0.34275050    -0.27200
C1454       C  0.97168382  0.79530311  0.34632314    -0.15300
C1455       C  0.99363868  0.83502687  0.34909377     0.35400
C1456       C  0.53236964  0.85206865  0.33108671    -0.26600
C1457       C  0.55331148  0.83575645  0.34606580    -0.15900
C1458       C  0.53292895  0.79946565  0.36414633     0.36500
N1459       N  0.55264659  0.78247383  0.38247522    -0.90100
H1460       H  0.97518485  0.74462348  0.34180996     0.17600
H1461       H  0.54719162  0.87979768  0.31697416     0.17600
N1462       N  0.97555003  0.85675160  0.35507755    -0.89200
H1463       H  0.54400419  0.75692159  0.36706744     0.34900
H1464       H  0.54443505  0.77662731  0.41396463     0.40000
H1465       H  0.98329179  0.87571161  0.33015044     0.39700
H1466       H  0.98611023  0.87233111  0.38279490     0.34500
C1467       C  0.79247687  0.85840420  0.35430652    -0.27200
C1468       C  0.76913825  0.84980131  0.31876258    -0.15300
C1469       C  0.76961273  0.82529403  0.28835941     0.35400
C1470       C  0.79084459  0.80760527  0.29509838    -0.26600
C1471       C  0.81136196  0.81320503  0.33248330    -0.15900
C1472       C  0.81360811  0.84040784  0.36140799     0.36500
N1473       N  0.83533126  0.84822695  0.39917621    -0.90100
H1474       H  0.79258474  0.87752328  0.37789160     0.17600
H1475       H  0.78911299  0.78737405  0.27200057     0.17600
N1476       N  0.74723219  0.81688735  0.25126916    -0.89200
H1477       H  0.81696423  0.84205352  0.42474707     0.34900
H1478       H  0.85523893  0.87703124  0.39990796     0.40000
H1479       H  0.72878792  0.78771761  0.25025585     0.39700
H1480       H  0.76543229  0.82433032  0.22540050     0.34500
C1481       C  0.75806759  0.53241189  0.35680353    -0.27200
C1482       C  0.71957673  0.51370501  0.34494338    -0.15300
C1483       C  0.70134087  0.53504775  0.34118776     0.35400
C1484       C  0.72229885  0.57438074  0.34780025    -0.26600
C1485       C  0.76141969  0.59293997  0.35689455    -0.15900
C1486       C  0.77896421  0.57133454  0.36242843     0.36500
N1487       N  0.81850941  0.58892954  0.37277238    -0.90100
H1488       H  0.77299103  0.51700270  0.35993117     0.17600
H1489       H  0.70847478  0.59070121  0.34345875     0.17600
N1490       N  0.66194680  0.51777442  0.33066544    -0.89200
H1491       H  0.83217817  0.58297714  0.34873801     0.34900
H1492       H  0.82108138  0.57665833  0.40033964     0.40000
H1493       H  0.64645652  0.99608591  0.35579485     0.39700
H1494       H  0.65781752  0.50572623  0.30080799     0.34500
C1495       C  0.84895070  0.68579572  0.20124985    -0.27200
C1496       C  0.82425132  0.69399052  0.22361330    -0.15300
C1497       C  0.79343809  0.69293618  0.20218329     0.35400
C1498       C  0.78617809  0.68091121  0.16029710    -0.26600
C1499       C  0.80947810  0.67053660  0.13883309    -0.15900
C1500       C  0.84176103  0.67405055  0.15909375     0.36500
N1501       N  0.86598335  0.66355204  0.13782727    -0.90100
H1502       H  0.87278442  0.68651778  0.21706296     0.17600
H1503       H  0.76154035  0.67873821  0.14476073     0.17600
N1504       N  0.76902482  0.70351348  0.22293423    -0.89200
H1505       H  0.86621824  0.64202313  0.15489570     0.34900
H1506       H  0.89354838  0.68684329  0.13797570     0.40000
H1507       H  0.74128804  0.68053383  0.22193889     0.39700
H1508       H  0.76968945  0.72561426  0.20612831     0.34500
C1509       C  0.76825921  0.73019047  0.54834017    -0.27200
C1510       C  0.75141314  0.75248636  0.54508034    -0.15300
C1511       C  0.74228172  0.76032460  0.50516932     0.35400
C1512       C  0.75243158  0.74797274  0.46900860    -0.26600
C1513       C  0.77290105  0.72918052  0.47221022    -0.15900
C1514       C  0.77975620  0.71909926  0.51210702     0.36500
N1515       N  0.80001818  0.69922649  0.51583990    -0.90100
H1516       H  0.77559024  0.72427413  0.57894664     0.17600
H1517       H  0.74741525  0.75616807  0.43845162     0.17600
N1518       N  0.72442719  0.78250053  0.50134405    -0.89200
H1519       H  0.78291999  0.67432749  0.53233353     0.34900
H1520       H  0.82451106  0.71576203  0.53364619     0.40000
H1521       H  0.69921558  0.76681226  0.48449561     0.39700
H1522       H  0.74234288  0.80658228  0.48387875     0.34500
C1523       C  0.86573013  0.65079958  0.53085711    -0.27200
C1524       C  0.89783887  0.67639760  0.55403105    -0.15300
C1525       C  0.92754325  0.70805013  0.53332659     0.35400
C1526       C  0.92276783  0.71556040  0.49171748    -0.26600
C1527       C  0.88935104  0.69163035  0.46986575    -0.15900
C1528       C  0.86127709  0.65819624  0.48894923     0.36500
N1529       N  0.82702071  0.63307607  0.46695292    -0.90100
H1530       H  0.84289973  0.62608745  0.54589553     0.17600
H1531       H  0.94477088  0.74100511  0.47687924     0.17600
N1532       N  0.96224408  0.73327833  0.55460202    -0.89200
H1533       H  0.80416146  0.63136473  0.48371559     0.34900
H1534       H  0.82411776  0.60634321  0.46698273     0.40000
H1535       H  0.96565470  0.76023163  0.55424267     0.39700
H1536       H  0.98472269  0.73420036  0.53777813     0.34500
loop_ 
_geom_bond_atom_site_label_1 
_geom_bond_atom_site_label_2 
_geom_bond_distance 
_geom_bond_site_symmetry_2 
_ccdc_geom_bond_type 
O1           C16   1.266       .  A
O1           Al9   1.906       .  S
C2           O12   1.268       .  A
C2            O3   1.262       .  A
C2          C375   1.476       .  S
O3           Al5   1.899       .  S
O4            C6   1.262       .  A
O4           Al5   1.913       .  S
Al5          O13   1.938       .  S
Al5          O15   1.918       .  S
Al5          O14   1.778       .  S
C6           O19   1.262       .  A
C6          C333   1.486       .  S
O7           C17   1.262       .  A
O7           Al9   1.919       .  S
O8           C21   1.267       .  A
O8          Al18   1.935       .  S
Al9          O22   1.899       .  S
Al9          O19   1.922       .  S
Al9          O14   1.784       .  S
O10          C17   1.258       .  A
O10         Al18   1.882       .  S
O11          C20   1.264       .  A
O11         Al18   1.925       .  S
O12         Al18   1.934       .  S
O13          C20   1.266       .  A
O14         Al18   1.781       .  S
O15          C16   1.271       .  A
C16         C344   1.488       .  S
C17         C361   1.469       .  S
C20         C302   1.493       .  S
C21          O22   1.261       .  A
C21         C319   1.490       .  S
O23          C38   1.270       .  A
O23         Al31   1.912       .  S
C24          O34   1.270       .  A
C24          O25   1.266       .  A
C24         C288   1.481       .  S
O25         Al27   1.904       .  S
O26          C28   1.260       .  A
O26         Al27   1.928       .  S
Al27         O35   1.935       .  S
Al27         O37   1.899       .  S
Al27         O36   1.781       .  S
C28          O41   1.256       .  A
C28         C246   1.476       .  S
O29          C39   1.262       .  A
O29         Al31   1.916       .  S
O30          C43   1.268       .  A
O30         Al40   1.947       .  S
Al31         O44   1.880       .  S
Al31         O41   1.906       .  S
Al31         O36   1.777       .  S
O32          C39   1.257       .  A
O32         Al40   1.879       .  S
O33          C42   1.268       .  A
O33         Al40   1.935       .  S
O34         Al40   1.917       .  S
O35          C42   1.266       .  A
O36         Al40   1.778       .  S
O37          C38   1.268       .  A
C38         C235   1.483       .  S
C39         C358   1.465       .  S
C42         C260   1.500       .  S
C43          O44   1.256       .  A
C43         C274   1.498       .  S
O45          C60   1.264       .  A
O45         Al53   1.905       .  S
C46          O56   1.264       .  A
C46          O47   1.262       .  A
C46         C218   1.476       .  S
O47         Al49   1.907       .  S
O48          C50   1.262       .  A
O48         Al49   1.925       .  S
Al49         O57   1.939       .  S
Al49         O59   1.916       .  S
Al49         O58   1.777       .  S
C50          O63   1.259       .  A
C50         C277   1.479       .  S
O51          C61   1.264       .  A
O51         Al53   1.924       .  S
O52          C65   1.264       .  A
O52         Al62   1.930       .  S
Al53         O66   1.884       .  S
Al53         O63   1.906       .  S
Al53         O58   1.782       .  S
O54          C61   1.259       .  A
O54         Al62   1.885       .  S
O55          C64   1.267       .  A
O55         Al62   1.924       .  S
O56         Al62   1.914       .  S
O57          C64   1.269       .  A
O58         Al62   1.787       .  S
O59          C60   1.268       .  A
C60         C372   1.487       .  S
C61         C204   1.473       .  S
C64         C263   1.507       .  S
C65          O66   1.258       .  A
C65        C1017   1.484       .  S
O67          C82   1.263       .  A
O67         Al75   1.901   1_554  S
C68          O78   1.264       .  A
C68          O69   1.267       .  A
C68         C232   1.478       .  S
O69         Al71   1.911       .  S
O70          C72   1.262       .  A
O70         Al71   1.930       .  S
Al71         O79   1.926       .  S
Al71         O81   1.912   1_556  S
Al71         O80   1.776       .  S
C72          O85   1.257       .  A
C72         C162   1.476       .  S
O73          C83   1.262       .  A
O73         Al75   1.914       .  S
O74          C87   1.265   1_556  A
O74         Al84   1.929       .  S
Al75         O88   1.886   1_556  S
Al75         O85   1.905       .  S
Al75         O80   1.779       .  S
O76          C83   1.257       .  A
O76         Al84   1.883       .  S
O77          C86   1.267       .  A
O77         Al84   1.929       .  S
O78         Al84   1.903       .  S
O79          C86   1.267       .  A
O80         Al84   1.783       .  S
O81          C82   1.270       .  A
C82         C148   1.488       .  S
C83         C207   1.466       .  S
C86         C176   1.507   1_556  S
C87          O88   1.256       .  A
C87         C961   1.480   1_455  S
O89         C104   1.265       .  A
O89         Al97   1.905   1_556  S
C90         O100   1.267       .  A
C90          O91   1.262       .  A
C90         C347   1.480       .  S
O91         Al93   1.905       .  S
O92          C94   1.261       .  A
O92         Al93   1.916       .  S
Al93        O101   1.920       .  S
Al93        O103   1.914   1_554  S
Al93        O102   1.777       .  S
C94         O107   1.259       .  A
C94         C190   1.473       .  S
O95         C105   1.263       .  A
O95         Al97   1.926       .  S
O96         C109   1.269       .  A
O96        Al106   1.954       .  S
Al97        O110   1.883   1_554  S
Al97        O107   1.904       .  S
Al97        O102   1.781       .  S
O98         C105   1.259       .  A
O98        Al106   1.888       .  S
O99         C108   1.269       .  A
O99        Al106   1.937       .  S
O100       Al106   1.929       .  S
O101        C108   1.266       .  A
O102       Al106   1.787       .  S
O103        C104   1.267       .  A
C104        C221   1.488       .  S
C105        C137   1.471       .  S
C108        C179   1.508       .  S
C109        O110   1.257   1_554  A
C109        C549   1.495   1_544  S
O111        C126   1.262       .  A
O111       Al119   1.893       .  S
C112        O122   1.267       .  A
C112        O113   1.264       .  A
C112        C151   1.478       .  S
O113       Al115   1.904       .  S
O114        C116   1.266       .  A
O114       Al115   1.940       .  S
Al115       O123   1.939       .  S
Al115       O125   1.911       .  S
Al115       O124   1.774       .  S
C116        O129   1.260       .  A
C116        C316   1.482       .  S
O117        C127   1.262       .  A
O117       Al119   1.917       .  S
O118        C131   1.268       .  A
O118       Al128   1.960       .  S
Al119       O132   1.876       .  S
Al119       O129   1.911       .  S
Al119       O124   1.772       .  S
O120        C127   1.258       .  A
O120       Al128   1.884       .  S
O121        C130   1.267       .  A
O121       Al128   1.919       .  S
O122       Al128   1.922       .  S
O123        C130   1.270       .  A
O124       Al128   1.784       .  S
O125        C126   1.267       .  A
C126        C291   1.482       .  S
C127        C134   1.463       .  S
C130        C305   1.500       .  S
C131        O132   1.257       .  A
C131        C714   1.495       .  S
C133        C134   1.400       .  A
C133        C522   1.398       .  A
C133        H524   1.085       .  S
C134        C135   1.408       .  A
C135        C136   1.404       .  A
C135        N142   1.438       .  S
C136        C521   1.404       .  A
C136        H141   1.084       .  S
C137        C138   1.407       .  A
C137        C520   1.402   1_545  A
C138        C517   1.402       .  A
C138        N139   1.433       .  S
N139        H143   1.045       .  S
N139        H144   1.046       .  S
H140        C517   1.084       .  S
N142        H145   1.045       .  S
N142        H146   1.047       .  S
C147        C148   1.404       .  A
C147        C152   1.404       .  A
C147        H154   1.084       .  S
C148        C149   1.425       .  A
C149        C150   1.395       .  A
C149        N156   1.433       .  S
C150        C151   1.398       .  A
C150        H155   1.084       .  S
C151        C152   1.408       .  A
C152        N153   1.428       .  S
N153        H157   1.047       .  S
N153        H158   1.045       .  S
N156        H159   1.045       .  S
N156        H160   1.044       .  S
C161        C162   1.401   1_554  A
C161        C166   1.406       .  A
C161        H168   1.085       .  S
C162        C163   1.404       .  A
C163        C164   1.409       .  A
C163        N170   1.432       .  S
C164        C165   1.412       .  A
C164        H169   1.084       .  S
C165        C493   1.492   1_556  S
C165        C166   1.414   1_556  A
C166        N167   1.432       .  S
N167        H171   1.046       .  S
N167        H172   1.046       .  S
N170        H173   1.046       .  S
N170        H174   1.045       .  S
C175        C176   1.405       .  A
C175        C180   1.401       .  A
C175        H182   1.083       .  S
C176        C177   1.417       .  A
C177        C178   1.422       .  A
C177        N184   1.431   1_554  S
C178        C179   1.411       .  A
C178        H183   1.083       .  S
C179        C180   1.418       .  A
C180        N181   1.434       .  S
N181        H185   1.046       .  S
N181        H186   1.045   1_554  S
N184        H187   1.046   1_556  S
N184        H188   1.045       .  S
C189        C190   1.396       .  A
C189        C194   1.401       .  A
C189        H196   1.079       .  S
C190        C191   1.409   1_554  A
C191        C192   1.412       .  A
C191        N198   1.437       .  S
C192        C193   1.409   1_556  A
C192        H197   1.083       .  S
C193        C855   1.492       .  S
C193        C194   1.415       .  A
C194        N195   1.432       .  S
N195        H199   1.046       .  S
N195        H968   1.046       .  S
N198        H201   1.046       .  S
N198        H202   1.046       .  S
H200        N963   1.045       .  S
C203        C208   1.398       .  A
C203        C972   1.403   1_455  A
C203        H210   1.084       .  S
C204        C205   1.409       .  A
C204        C971   1.404       .  A
C205        C206   1.401       .  A
C205        N212   1.433       .  S
C206        C975   1.402       .  A
C206        H211   1.084       .  S
C207        C208   1.414       .  A
C207        C974   1.401   1_455  A
C208        N209   1.434       .  S
N209        H213   1.044       .  S
N209        H214   1.046       .  S
N212        H215   1.045       .  S
N212        H216   1.046       .  S
C217        C218   1.405       .  A
C217        C222   1.409       .  A
C217        H224   1.084       .  S
C218        C219   1.405       .  A
C219        C220   1.398       .  A
C219        N226   1.433       .  S
C220        C221   1.408       .  A
C220        H225   1.084       .  S
C221        C222   1.414       .  A
C222        N223   1.432       .  S
N223        H227   1.046       .  S
N223        H228   1.046       .  S
N226        H229   1.045       .  S
N226        H230   1.046       .  S
C231        C232   1.404       .  A
C231        C236   1.404       .  A
C231        H238   1.084       .  S
C232        C233   1.414       .  A
C233        C234   1.398       .  A
C233        N240   1.440       .  S
C234        C235   1.405       .  A
C234        H239   1.083       .  S
C235        C236   1.412       .  A
C236        N237   1.432       .  S
N237        H241   1.045       .  S
N237        H242   1.045       .  S
N240        H243   1.046       .  S
N240        H244   1.045       .  S
C245        C246   1.401       .  A
C245        C250   1.405       .  A
C245        H252   1.084       .  S
C246        C247   1.406       .  A
C247        C248   1.409       .  A
C247        N254   1.434       .  S
C248        C249   1.409       .  A
C248        H253   1.084       .  S
C249        C833   1.488   1_455  S
C249        C250   1.413       .  A
C250        N251   1.432       .  S
N251        H255   1.046       .  S
N251        H256   1.046       .  S
N254        H257   1.044       .  S
N254        H258   1.047       .  S
C259        C260   1.407       .  A
C259        C648   1.407       .  A
C259        H266   1.084       .  S
C260        C261   1.411       .  A
C261        C646   1.420       .  A
C261        N268   1.431       .  S
C262        C263   1.413       .  A
C262        C645   1.420   1_545  A
C262        H267   1.083       .  S
C263        C264   1.414       .  A
C264        C643   1.406   1_545  A
C264        N265   1.433       .  S
N265        H269   1.045       .  S
N265        H270   1.046       .  S
N268        H271   1.046       .  S
N268        H272   1.045       .  S
C273        C274   1.409       .  A
C273        C278   1.410       .  A
C273        H280   1.083       .  S
C274        C275   1.420       .  A
C275        C276   1.407       .  A
C275        N282   1.433       .  S
C276        C277   1.399       .  A
C276        H281   1.084       .  S
C277        C278   1.407       .  A
C278        N279   1.432       .  S
N279        H283   1.045       .  S
N279        H284   1.046       .  S
N282        H285   1.045       .  S
N282        H286   1.046       .  S
C287        C288   1.401       .  A
C287        C292   1.392       .  A
C287        H294   1.084       .  S
C288        C289   1.412       .  A
C289        C290   1.406       .  A
C289        N296   1.430       .  S
C290        C291   1.404       .  A
C290        H295   1.084       .  S
C291        C292   1.416       .  A
C292        N293   1.434       .  S
N293        H297   1.046       .  S
N293        H298   1.045       .  S
N296        H299   1.045       .  S
N296        H300   1.045       .  S
C301        C302   1.404       .  A
C301       C1074   1.407       .  A
C301        H308   1.084       .  S
C302        C303   1.410       .  A
C303       C1072   1.418       .  A
C303        N310   1.431       .  S
C304        C305   1.412       .  A
C304       C1071   1.417   1_455  A
C304        H309   1.083       .  S
C305        C306   1.412       .  A
C306       C1069   1.406   1_455  A
C306        N307   1.433       .  S
N307        H311   1.046       .  S
N307        H312   1.046       .  S
N310        H313   1.046       .  S
N310        H314   1.045       .  S
C315        C316   1.402       .  A
C315        C320   1.406       .  A
C315        H322   1.083       .  S
C316        C317   1.406       .  A
C317        C318   1.409       .  A
C317        N324   1.428       .  S
C318        C319   1.407       .  A
C318        H323   1.084       .  S
C319        C320   1.414       .  A
C320        N321   1.432       .  S
N321        H325   1.044       .  S
N321        H326   1.045       .  S
N324        H327   1.045       .  S
N324        H328   1.046       .  S
C329        C330   1.409       .  A
C329        C334   1.397       .  A
C329        H336   1.084       .  S
C330        C515   1.501   1_545  S
C330        C331   1.421       .  A
C331        C332   1.414       .  A
C331        N338   1.431       .  S
C332        C333   1.407       .  A
C332        H337   1.084       .  S
C333        C334   1.406       .  A
C334        N335   1.433       .  S
N335        H339   1.046       .  S
N335        H340   1.045       .  S
N338        H342   1.044       .  S
N338        H725   1.045   1_545  S
H341        N722   1.045       .  S
C343        C344   1.404       .  A
C343        C348   1.406       .  A
C343        H350   1.084       .  S
C344        C345   1.417       .  A
C345        C346   1.401       .  A
C345        N352   1.433       .  S
C346        C347   1.400       .  A
C346        H351   1.084       .  S
C347        C348   1.410       .  A
C348        N349   1.429       .  S
N349        H353   1.045       .  S
N349        H354   1.046       .  S
N352        H355   1.046       .  S
N352        H356   1.046       .  S
C357        C358   1.400       .  A
C357        C362   1.399       .  A
C357        H364   1.084       .  S
C358        C359   1.408       .  A
C359        C360   1.402       .  A
C359        N366   1.434       .  S
C360        C361   1.403       .  A
C360        H365   1.084       .  S
C361        C362   1.408       .  A
C362        N363   1.432       .  S
N363        H367   1.046       .  S
N363        H368   1.045       .  S
N366        H369   1.045       .  S
N366        H370   1.046       .  S
C371        C372   1.405       .  A
C371        C376   1.409       .  A
C371        H378   1.083       .  S
C372        C373   1.416       .  A
C373        C374   1.402       .  A
C373        N380   1.433       .  S
C374        C375   1.399       .  A
C374        H379   1.084       .  S
C375        C376   1.413       .  A
C376        N377   1.438       .  S
N377        H381   1.048       .  S
N377        H382   1.042       .  S
N380        H383   1.046       .  S
N380        H384   1.045       .  S
O385        C400   1.265       .  A
O385       Al393   1.903       .  S
C386        O396   1.266       .  A
C386        O387   1.262       .  A
C386        C759   1.471       .  S
O387       Al389   1.897       .  S
O388        C390   1.262       .  A
O388       Al389   1.913       .  S
Al389       O397   1.936       .  S
Al389       O399   1.914       .  S
Al389       O398   1.777       .  S
C390        O403   1.260       .  A
C390        C717   1.481       .  S
O391        C401   1.263       .  A
O391       Al393   1.924       .  S
O392        C405   1.267       .  A
O392       Al402   1.939       .  S
Al393       O406   1.884       .  S
Al393       O403   1.911       .  S
Al393       O398   1.782       .  S
O394        C401   1.257       .  A
O394       Al402   1.882       .  S
O395        C404   1.266       .  A
O395       Al402   1.929       .  S
O396       Al402   1.924       .  S
O397        C404   1.267       .  A
O398       Al402   1.784       .  S
O399        C400   1.271       .  A
C400        C728   1.484       .  S
C401        C745   1.471       .  S
C404        C686   1.500       .  S
C405        O406   1.258       .  A
C405        C703   1.486       .  S
O407        C422   1.269       .  A
O407       Al415   1.912       .  S
C408        O418   1.267       .  A
C408        O409   1.267       .  A
C408        C672   1.479       .  S
O409       Al411   1.908       .  S
O410        C412   1.262       .  A
O410       Al411   1.934       .  S
Al411       O419   1.936       .  S
Al411       O421   1.901       .  S
Al411       O420   1.779       .  S
C412        O425   1.256       .  A
C412        C630   1.482       .  S
O413        C423   1.265       .  A
O413       Al415   1.927       .  S
O414        C427   1.267       .  A
O414       Al424   1.945       .  S
Al415       O428   1.885       .  S
Al415       O425   1.907       .  S
Al415       O420   1.780       .  S
O416        C423   1.257       .  A
O416       Al424   1.874       .  S
O417        C426   1.269       .  A
O417       Al424   1.934       .  S
O418       Al424   1.918       .  S
O419        C426   1.268       .  A
O420       Al424   1.782       .  S
O421        C422   1.267       .  A
C422        C619   1.483       .  S
C423        C742   1.467       .  S
C426        C644   1.502       .  S
C427        O428   1.256       .  A
C427        C658   1.495       .  S
O429        C444   1.267       .  A
O429       Al437   1.910       .  S
C430        O440   1.269       .  A
C430        O431   1.266       .  A
C430        C602   1.479       .  S
O431       Al433   1.900       .  S
O432        C434   1.263       .  A
O432       Al433   1.938       .  S
Al433       O441   1.936       .  S
Al433       O443   1.909       .  S
Al433       O442   1.777       .  S
C434        O447   1.258       .  A
C434        C661   1.481       .  S
O435        C445   1.264       .  A
O435       Al437   1.930       .  S
O436        C449   1.269       .  A
O436       Al446   1.962       .  S
Al437       O450   1.865       .  S
Al437       O447   1.907       .  S
Al437       O442   1.773       .  S
O438        C445   1.255       .  A
O438       Al446   1.870       .  S
O439        C448   1.267       .  A
O439       Al446   1.925       .  S
O440       Al446   1.920       .  S
O441        C448   1.267       .  A
O442       Al446   1.787       .  S
O443        C444   1.270       .  A
C444        C756   1.482       .  S
C445        C588   1.473       .  S
C448        C647   1.504       .  S
C449        O450   1.254       .  A
C449       C1401   1.494       .  S
O451        C466   1.261       .  A
O451       Al459   1.892   1_554  S
C452        O462   1.267       .  A
C452        O453   1.264       .  A
C452        C616   1.470       .  S
O453       Al455   1.901       .  S
O454        C456   1.265   1_554  A
O454       Al455   1.941   1_554  S
Al455       O463   1.951       .  S
Al455       O465   1.920   1_556  S
Al455       O464   1.777       .  S
C456        O469   1.258       .  A
C456        C546   1.478       .  S
O457        C467   1.259       .  A
O457       Al459   1.907       .  S
O458        C471   1.269   1_556  A
O458       Al468   1.948       .  S
Al459       O472   1.878   1_556  S
Al459       O469   1.903       .  S
Al459       O464   1.776       .  S
O460        C467   1.257       .  A
O460       Al468   1.883       .  S
O461        C470   1.267       .  A
O461       Al468   1.926       .  S
O462       Al468   1.919       .  S
O463        C470   1.270       .  A
O464       Al468   1.781       .  S
O465        C466   1.272       .  A
C466        C532   1.488       .  S
C467        C591   1.460       .  S
C470        C560   1.508       .  S
C471        O472   1.256       .  A
C471       C1345   1.490   1_455  S
O473        C488   1.267       .  A
O473       Al481   1.905   1_556  S
C474        O484   1.268       .  A
C474        O475   1.262       .  A
C474        C731   1.475       .  S
O475       Al477   1.897       .  S
O476        C478   1.260       .  A
O476       Al477   1.921       .  S
Al477       O485   1.935       .  S
Al477       O487   1.908   1_554  S
Al477       O486   1.777       .  S
C478        O491   1.257       .  A
C478        C574   1.472       .  S
O479        C489   1.262       .  A
O479       Al481   1.916       .  S
O480        C493   1.269       .  A
O480       Al490   1.948       .  S
Al481       O494   1.883   1_554  S
Al481       O491   1.904       .  S
Al481       O486   1.780       .  S
O482        C489   1.258       .  A
O482       Al490   1.882       .  S
O483        C492   1.268       .  A
O483       Al490   1.933       .  S
O484       Al490   1.931       .  S
O485        C492   1.267       .  A
O486       Al490   1.783       .  S
O487        C488   1.268       .  A
C488        C605   1.486       .  S
C489        C521   1.470       .  S
C492        C563   1.511       .  S
C493        O494   1.257   1_554  A
O495        C510   1.272       .  A
O495       Al503   1.926       .  S
C496        O506   1.273       .  A
C496        O497   1.267       .  A
C496        C535   1.480       .  S
O497       Al499   1.895       .  S
O498        C500   1.257       .  A
O498       Al499   1.920       .  S
Al499       O507   1.905       .  S
Al499       O509   1.892       .  S
Al499       O508   1.779       .  S
C500        O513   1.256       .  A
C500        C700   1.477       .  S
O501        C511   1.264       .  A
O501       Al503   1.926       .  S
O502        C515   1.267       .  A
O502       Al512   1.948       .  S
Al503       O516   1.871       .  S
Al503       O513   1.914       .  S
Al503       O508   1.774       .  S
O504        C511   1.255       .  A
O504       Al512   1.872       .  S
O505        C514   1.264       .  A
O505       Al512   1.928       .  S
O506       Al512   1.931       .  S
O507        C514   1.260       .  A
O508       Al512   1.785       .  S
O509        C510   1.269       .  A
C510        C675   1.484       .  S
C511        C518   1.472       .  S
C514        C689   1.500       .  S
C515        O516   1.256       .  A
C517        C518   1.402   1_545  A
C518        C519   1.413       .  A
C519        C520   1.405       .  A
C519        N526   1.439       .  S
C520        H525   1.084       .  S
C521        C522   1.409       .  A
C522        N523   1.433       .  S
N523        H527   1.045       .  S
N523        H528   1.046       .  S
N526        H529   1.047       .  S
N526        H530   1.045       .  S
C531        C532   1.403       .  A
C531        C536   1.404       .  A
C531        H538   1.084       .  S
C532        C533   1.427       .  A
C533        C534   1.393       .  A
C533        N540   1.433       .  S
C534        C535   1.398       .  A
C534        H539   1.084       .  S
C535        C536   1.410       .  A
C536        N537   1.429       .  S
N537        H541   1.045       .  S
N537        H542   1.046       .  S
N540        H543   1.045       .  S
N540        H544   1.045       .  S
C545        C546   1.403   1_554  A
C545        C550   1.408       .  A
C545        H552   1.084       .  S
C546        C547   1.403       .  A
C547        C548   1.407       .  A
C547        N554   1.432       .  S
C548        C549   1.412       .  A
C548        H553   1.084       .  S
C549        C550   1.415   1_556  A
C550        N551   1.432       .  S
N551        H555   1.045       .  S
N551        H556   1.046       .  S
N554        H557   1.046       .  S
N554        H558   1.045       .  S
C559        C560   1.407       .  A
C559        C564   1.410       .  A
C559        H566   1.084       .  S
C560        C561   1.414   1_556  A
C561        C562   1.420       .  A
C561        N568   1.431       .  S
C562        C563   1.412       .  A
C562        H567   1.083       .  S
C563        C564   1.417   1_554  A
C564        N565   1.433       .  S
N565        H569   1.045       .  S
N565        H570   1.046       .  S
N568        H571   1.045       .  S
N568        H572   1.046       .  S
C573        C574   1.398       .  A
C573        C578   1.404       .  A
C573        H580   1.079       .  S
C574        C575   1.408   1_554  A
C575        C576   1.407       .  A
C575        N582   1.438       .  S
C576        C577   1.407   1_556  A
C576        H581   1.083       .  S
C577       C1239   1.486       .  S
C577        C578   1.414       .  A
C578        N579   1.433       .  S
N579        H583   1.045       .  S
N579       H1352   1.046       .  S
N582        H585   1.045       .  S
N582        H586   1.045       .  S
H584       N1347   1.046       .  S
C587       C1356   1.404   1_455  A
C587        C592   1.397       .  A
C587        H594   1.084       .  S
C588       C1355   1.403       .  A
C588        C589   1.412       .  A
C589        C590   1.400       .  A
C589        N596   1.434       .  S
C590       C1359   1.400       .  A
C590        H595   1.085       .  S
C591       C1358   1.399   1_455  A
C591        C592   1.411       .  A
C592        N593   1.433       .  S
N593        H597   1.045       .  S
N593        H598   1.045       .  S
N596        H599   1.046       .  S
N596        H600   1.045       .  S
C601        C602   1.406       .  A
C601        C606   1.405       .  A
C601        H608   1.084       .  S
C602        C603   1.411       .  A
C603        C604   1.400       .  A
C603        N610   1.439       .  S
C604        C605   1.408       .  A
C604        H609   1.083       .  S
C605        C606   1.411       .  A
C606        N607   1.432       .  S
N607        H611   1.045       .  S
N607        H612   1.045       .  S
N610        H613   1.047       .  S
N610        H614   1.044       .  S
C615        C616   1.403       .  A
C615        C620   1.405       .  A
C615        H622   1.084       .  S
C616        C617   1.405       .  A
C617        C618   1.397       .  A
C617        N624   1.433       .  S
C618        C619   1.407       .  A
C618        H623   1.084       .  S
C619        C620   1.414       .  A
C620        N621   1.432       .  S
N621        H625   1.045       .  S
N621        H626   1.046       .  S
N624        H627   1.045       .  S
N624        H628   1.046       .  S
C629        C630   1.403       .  A
C629        C634   1.411       .  A
C629        H636   1.084       .  S
C630        C631   1.406       .  A
C631        C632   1.410       .  A
C631        N638   1.435       .  S
C632        C633   1.409       .  A
C632        H637   1.084       .  S
C633       C1217   1.493   1_455  S
C633        C634   1.416       .  A
C634        N635   1.438       .  S
N635        H639   1.046       .  S
N635        H640   1.045       .  S
N638        H641   1.044       .  S
N638        H642   1.047       .  S
C643        C644   1.407       .  A
C643        H650   1.084       .  S
C644        C645   1.412       .  A
C645        N652   1.431       .  S
C646        C647   1.413       .  A
C646        H651   1.083       .  S
C647        C648   1.413       .  A
C648        N649   1.433       .  S
N649        H653   1.046       .  S
N649        H654   1.045       .  S
N652        H655   1.045       .  S
N652        H656   1.046       .  S
C657        C658   1.407       .  A
C657        C662   1.408       .  A
C657        H664   1.084       .  S
C658        C659   1.418       .  A
C659        C660   1.410       .  A
C659        N666   1.432       .  S
C660        C661   1.400       .  A
C660        H665   1.084       .  S
C661        C662   1.408       .  A
C662        N663   1.433       .  S
N663        H667   1.045       .  S
N663        H668   1.046       .  S
N666        H669   1.046       .  S
N666        H670   1.045       .  S
C671        C672   1.403       .  A
C671        C676   1.398       .  A
C671        H678   1.084       .  S
C672        C673   1.409       .  A
C673        C674   1.403       .  A
C673        N680   1.430       .  S
C674        C675   1.407       .  A
C674        H679   1.084       .  S
C675        C676   1.414       .  A
C676        N677   1.433       .  S
N677        H681   1.046       .  S
N677        H682   1.045       .  S
N680        H683   1.045       .  S
N680        H684   1.046       .  S
C685        C686   1.406       .  A
C685       C1458   1.407       .  A
C685        H692   1.084       .  S
C686        C687   1.411       .  A
C687       C1456   1.419       .  A
C687        N694   1.431       .  S
C688       C1455   1.418   1_455  A
C688        C689   1.411       .  A
C688        H693   1.083       .  S
C689        C690   1.417       .  A
C690       C1453   1.396   1_455  A
C690        N691   1.434       .  S
N691        H695   1.046       .  S
N691        H696   1.046       .  S
N694        H697   1.046       .  S
N694        H698   1.045       .  S
C699        C700   1.402       .  A
C699        C704   1.406       .  A
C699        H706   1.085       .  S
C700        C701   1.404       .  A
C701        C702   1.407       .  A
C701        N708   1.429       .  S
C702        C703   1.407       .  A
C702        H707   1.084       .  S
C703        C704   1.413       .  A
C704        N705   1.432       .  S
N705        H709   1.047       .  S
N705        H710   1.044       .  S
N708        H711   1.045       .  S
N708        H712   1.045       .  S
C713        C714   1.408       .  A
C713        C718   1.395       .  A
C713        H720   1.084       .  S
C714        C715   1.419       .  A
C715        C716   1.412       .  A
C715        N722   1.432       .  S
C716        C717   1.408       .  A
C716        H721   1.084       .  S
C717        C718   1.404       .  A
C718        N719   1.433       .  S
N719        H723   1.046       .  S
N719        H724   1.045       .  S
N722        H726   1.045       .  S
C727        C728   1.403       .  A
C727        C732   1.404       .  A
C727        H734   1.084       .  S
C728        C729   1.417       .  A
C729        C730   1.401       .  A
C729        N736   1.433       .  S
C730        C731   1.398       .  A
C730        H735   1.084       .  S
C731        C732   1.410       .  A
C732        N733   1.431       .  S
N733        H737   1.045       .  S
N733        H738   1.046       .  S
N736        H739   1.046       .  S
N736        H740   1.045       .  S
C741        C742   1.400       .  A
C741        C746   1.401       .  A
C741        H748   1.084       .  S
C742        C743   1.409       .  A
C743        C744   1.401       .  A
C743        N750   1.434       .  S
C744        C745   1.402       .  A
C744        H749   1.084       .  S
C745        C746   1.410       .  A
C746        N747   1.432       .  S
N747        H751   1.045       .  S
N747        H752   1.045       .  S
N750        H753   1.044       .  S
N750        H754   1.047       .  S
C755        C756   1.404       .  A
C755        C760   1.407       .  A
C755        H762   1.083       .  S
C756        C757   1.415       .  A
C757        C758   1.398       .  A
C757        N764   1.433       .  S
C758        C759   1.398       .  A
C758        H763   1.084       .  S
C759        C760   1.412       .  A
C760        N761   1.438       .  S
N761        H765   1.044       .  S
N761        H766   1.047       .  S
N764        H767   1.046       .  S
N764        H768   1.046       .  S
O769        C784   1.268       .  A
O769       Al777   1.912       .  S
C770        O780   1.269       .  A
C770        O771   1.263       .  A
C770       C1143   1.468       .  S
O771       Al773   1.894       .  S
O772        C774   1.260       .  A
O772       Al773   1.906       .  S
Al773       O781   1.927       .  S
Al773       O783   1.916       .  S
Al773       O782   1.776       .  S
C774        O787   1.260       .  A
C774       C1101   1.478       .  S
O775        C785   1.262       .  A
O775       Al777   1.923       .  S
O776        C789   1.269       .  A
O776       Al786   1.947       .  S
Al777       O790   1.873       .  S
Al777       O787   1.911       .  S
Al777       O782   1.779       .  S
O778        C785   1.255       .  A
O778       Al786   1.879       .  S
O779        C788   1.265       .  A
O779       Al786   1.928       .  S
O780       Al786   1.929       .  S
O781        C788   1.263       .  A
O782       Al786   1.781       .  S
O783        C784   1.272       .  A
C784       C1112   1.485       .  S
C785       C1129   1.472       .  S
C788       C1070   1.493       .  S
C789        O790   1.257       .  A
C789       C1087   1.487       .  S
O791        C806   1.267       .  A
O791       Al799   1.906       .  S
C792        O802   1.266       .  A
C792        O793   1.267       .  A
C792       C1056   1.482       .  S
O793       Al795   1.911       .  S
O794        C796   1.263       .  A
O794       Al795   1.931       .  S
Al795       O803   1.920       .  S
Al795       O805   1.913       .  S
Al795       O804   1.775       .  S
C796        O809   1.256       .  A
C796       C1014   1.474       .  S
O797        C807   1.263       .  A
O797       Al799   1.922       .  S
O798        C811   1.268       .  A
O798       Al808   1.950       .  S
Al799       O812   1.876       .  S
Al799       O809   1.899       .  S
Al799       O804   1.777       .  S
O800        C807   1.258       .  A
O800       Al808   1.883       .  S
O801        C810   1.269       .  A
O801       Al808   1.929       .  S
O802       Al808   1.925       .  S
O803        C810   1.267       .  A
O804       Al808   1.784       .  S
O805        C806   1.267       .  A
C806       C1003   1.488       .  S
C807       C1126   1.465       .  S
C810       C1028   1.502       .  S
C811        O812   1.254       .  A
C811       C1042   1.495       .  S
O813        C828   1.265       .  A
O813       Al821   1.900       .  S
C814        O824   1.267       .  A
C814        O815   1.263       .  A
C814        C986   1.477       .  S
O815       Al817   1.906       .  S
O816        C818   1.262       .  A
O816       Al817   1.924       .  S
Al817       O825   1.938       .  S
Al817       O827   1.911       .  S
Al817       O826   1.778       .  S
C818        O831   1.258       .  A
C818       C1045   1.474       .  S
O819        C829   1.263       .  A
O819       Al821   1.920       .  S
O820        C833   1.266       .  A
O820       Al830   1.934       .  S
Al821       O834   1.885       .  S
Al821       O831   1.902       .  S
Al821       O826   1.779       .  S
O822        C829   1.258       .  A
O822       Al830   1.878       .  S
O823        C832   1.265       .  A
O823       Al830   1.922       .  S
O824       Al830   1.922       .  S
O825        C832   1.268       .  A
O826       Al830   1.779       .  S
O827        C828   1.269       .  A
C828       C1140   1.481       .  S
C829        C972   1.468       .  S
C832       C1031   1.501       .  S
C833        O834   1.257       .  A
O835        C850   1.267       .  A
O835       Al843   1.912   1_554  S
C836        O846   1.268       .  A
C836        O837   1.266       .  A
C836       C1000   1.476       .  S
O837       Al839   1.905       .  S
O838        C840   1.260   1_554  A
O838       Al839   1.932   1_554  S
Al839       O847   1.932       .  S
Al839       O849   1.900   1_556  S
Al839       O848   1.782       .  S
C840        O853   1.257       .  A
C840        C930   1.484       .  S
O841        C851   1.261       .  A
O841       Al843   1.916       .  S
O842        C855   1.265   1_556  A
O842       Al852   1.931       .  S
Al843       O856   1.880   1_556  S
Al843       O853   1.913       .  S
Al843       O848   1.783       .  S
O844        C851   1.256       .  A
O844       Al852   1.877       .  S
O845        C854   1.264       .  A
O845       Al852   1.928       .  S
O846       Al852   1.914       .  S
O847        C854   1.265       .  A
O848       Al852   1.786       .  S
O849        C850   1.270       .  A
C850        C916   1.486       .  S
C851        C975   1.469       .  S
C854        C944   1.509   1_556  S
C855        O856   1.257       .  A
O857        C872   1.269       .  A
O857       Al865   1.915   1_556  S
C858        O868   1.272       .  A
C858        O859   1.264       .  A
C858       C1115   1.476       .  S
O859       Al861   1.892       .  S
O860        C862   1.261       .  A
O860       Al861   1.927       .  S
Al861       O869   1.922       .  S
Al861       O871   1.912   1_554  S
Al861       O870   1.780       .  S
C862        O875   1.257       .  A
C862        C958   1.472       .  S
O863        C873   1.262       .  A
O863       Al865   1.924       .  S
O864        C877   1.274       .  A
O864       Al874   1.969       .  S
Al865       O878   1.870   1_554  S
Al865       O875   1.907       .  S
Al865       O870   1.775       .  S
O866        C873   1.257       .  A
O866       Al874   1.890       .  S
O867        C876   1.268       .  A
O867       Al874   1.940       .  S
O868       Al874   1.942       .  S
O869        C876   1.264       .  A
O870       Al874   1.783       .  S
O871        C872   1.269       .  A
C872        C989   1.487       .  S
C873        C905   1.474       .  S
C876        C947   1.508       .  S
C877        O878   1.256   1_554  A
C877       C1317   1.502   1_544  S
O879        C894   1.268       .  A
O879       Al887   1.922       .  S
C880        O890   1.269       .  A
C880        O881   1.267       .  A
C880        C919   1.473       .  S
O881       Al883   1.899       .  S
O882        C884   1.262       .  A
O882       Al883   1.933       .  S
Al883       O891   1.925       .  S
Al883       O893   1.903       .  S
Al883       O892   1.776       .  S
C884        O897   1.259       .  A
C884       C1084   1.477       .  S
O885        C895   1.265       .  A
O885       Al887   1.936       .  S
O886        C899   1.270       .  A
O886       Al896   1.959       .  S
Al887       O900   1.860       .  S
Al887       O897   1.907       .  S
Al887       O892   1.776       .  S
O888        C895   1.256       .  A
O888       Al896   1.885       .  S
O889        C898   1.267       .  A
O889       Al896   1.928       .  S
O890       Al896   1.920       .  S
O891        C898   1.264       .  A
O892       Al896   1.786       .  S
O893        C894   1.269       .  A
C894       C1059   1.485       .  S
C895        C902   1.479       .  S
C898       C1073   1.500       .  S
C899        O900   1.254       .  A
C899       C1482   1.489       .  S
C901        C902   1.403       .  A
C901       C1290   1.405       .  A
C901       H1292   1.084       .  S
C902        C903   1.411       .  A
C903        C904   1.406       .  A
C903        N910   1.433       .  S
C904       C1289   1.403       .  A
C904        H909   1.084       .  S
C905       C1288   1.402   1_545  A
C905        C906   1.408       .  A
C906       C1285   1.405       .  A
C906        N907   1.432       .  S
N907        H911   1.046       .  S
N907        H912   1.045       .  S
H908       C1285   1.084       .  S
N910        H913   1.045       .  S
N910        H914   1.046       .  S
C915        C916   1.406       .  A
C915        C920   1.401       .  A
C915        H922   1.084       .  S
C916        C917   1.423       .  A
C917        C918   1.395       .  A
C917        N924   1.432       .  S
C918        C919   1.400       .  A
C918        H923   1.084       .  S
C919        C920   1.406       .  A
C920        N921   1.429       .  S
N921        H925   1.046       .  S
N921        H926   1.045       .  S
N924        H927   1.046       .  S
N924        H928   1.043       .  S
C929        C930   1.404   1_554  A
C929        C934   1.411       .  A
C929        H936   1.084       .  S
C930        C931   1.404       .  A
C931        C932   1.409       .  A
C931        N938   1.432       .  S
C932        C933   1.412       .  A
C932        H937   1.084       .  S
C933       C1261   1.501   1_556  S
C933        C934   1.416   1_556  A
C934        N935   1.432       .  S
N935        H939   1.046       .  S
N935        H940   1.045       .  S
N938        H941   1.046       .  S
N938        H942   1.045       .  S
C943        C944   1.405       .  A
C943        C948   1.405       .  A
C943        H950   1.084       .  S
C944        C945   1.419   1_554  A
C945        C946   1.422       .  A
C945        N952   1.431       .  S
C946        C947   1.409   1_556  A
C946        H951   1.083       .  S
C947        C948   1.417       .  A
C948        N949   1.433       .  S
N949        H953   1.046       .  S
N949        H954   1.046       .  S
N952        H955   1.045       .  S
N952        H956   1.046       .  S
C957        C958   1.401       .  A
C957        C962   1.408       .  A
C957        H964   1.083       .  S
C958        C959   1.409   1_554  A
C959        C960   1.404       .  A
C959        N966   1.438       .  S
C960        C961   1.404   1_556  A
C960        H965   1.084       .  S
C961        C962   1.412       .  A
C962        N963   1.432       .  S
N963        H967   1.045       .  S
N966        H969   1.045       .  S
N966        H970   1.045       .  S
C971        C976   1.399       .  A
C971        H978   1.084       .  S
C972        C973   1.408       .  A
C973        C974   1.399       .  A
C973        N980   1.433       .  S
C974        H979   1.084       .  S
C975        C976   1.414       .  A
C976        N977   1.434       .  S
N977        H981   1.045       .  S
N977        H982   1.045       .  S
N980        H983   1.045       .  S
N980        H984   1.045       .  S
C985        C986   1.406       .  A
C985        C990   1.409       .  A
C985        H992   1.084       .  S
C986        C987   1.406       .  A
C987        C988   1.397       .  A
C987        N994   1.433       .  S
C988        C989   1.407       .  A
C988        H993   1.084       .  S
C989        C990   1.413       .  A
C990        N991   1.432       .  S
N991        H995   1.046       .  S
N991        H996   1.046       .  S
N994        H997   1.045       .  S
N994        H998   1.046       .  S
C999       C1000   1.404       .  A
C999       C1004   1.407       .  A
C999       H1006   1.083       .  S
C1000      C1001   1.409       .  A
C1001      C1002   1.399       .  A
C1001      N1008   1.439       .  S
C1002      C1003   1.408       .  A
C1002      H1007   1.083       .  S
C1003      C1004   1.413       .  A
C1004      N1005   1.432       .  S
N1005      H1009   1.045       .  S
N1005      H1010   1.046       .  S
N1008      H1011   1.043       .  S
N1008      H1012   1.048       .  S
C1013      C1014   1.401       .  A
C1013      C1018   1.406       .  A
C1013      H1020   1.084       .  S
C1014      C1015   1.403       .  A
C1015      C1016   1.402       .  A
C1015      N1022   1.426       .  S
C1016      C1017   1.404       .  A
C1016      H1021   1.084       .  S
C1017      C1018   1.414       .  A
C1018      N1019   1.432       .  S
N1019      H1023   1.046       .  S
N1019      H1024   1.045       .  S
N1022      H1025   1.045       .  S
N1022      H1026   1.046       .  S
C1027      C1028   1.407       .  A
C1027      C1416   1.405       .  A
C1027      H1034   1.083       .  S
C1028      C1029   1.412       .  A
C1029      C1414   1.417       .  A
C1029      N1036   1.431       .  S
C1030      C1413   1.419   1_545  A
C1030      C1031   1.410       .  A
C1030      H1035   1.083       .  S
C1031      C1032   1.413       .  A
C1032      C1411   1.403   1_545  A
C1032      N1033   1.433       .  S
N1033      H1037   1.046       .  S
N1033      H1038   1.045       .  S
N1036      H1039   1.045       .  S
N1036      H1040   1.046       .  S
C1041      C1042   1.408       .  A
C1041      C1046   1.408       .  A
C1041      H1048   1.083       .  S
C1042      C1043   1.421       .  A
C1043      C1044   1.405       .  A
C1043      N1050   1.433       .  S
C1044      C1045   1.397       .  A
C1044      H1049   1.084       .  S
C1045      C1046   1.406       .  A
C1046      N1047   1.432       .  S
N1047      H1051   1.044       .  S
N1047      H1052   1.047       .  S
N1050      H1053   1.045       .  S
N1050      H1054   1.046       .  S
C1055      C1056   1.403       .  A
C1055      C1060   1.404       .  A
C1055      H1062   1.084       .  S
C1056      C1057   1.407       .  A
C1057      C1058   1.401       .  A
C1057      N1064   1.425       .  S
C1058      C1059   1.401       .  A
C1058      H1063   1.084       .  S
C1059      C1060   1.415       .  A
C1060      N1061   1.433       .  S
N1061      H1065   1.045       .  S
N1061      H1066   1.046       .  S
N1064      H1067   1.047       .  S
N1064      H1068   1.044       .  S
C1069      C1070   1.406       .  A
C1069      H1076   1.084       .  S
C1070      C1071   1.409       .  A
C1071      N1078   1.431       .  S
C1072      C1073   1.411       .  A
C1072      H1077   1.083       .  S
C1073      C1074   1.413       .  A
C1074      N1075   1.433       .  S
N1075      H1079   1.045       .  S
N1075      H1080   1.046       .  S
N1078      H1081   1.045       .  S
N1078      H1082   1.045       .  S
C1083      C1084   1.404       .  A
C1083      C1088   1.408       .  A
C1083      H1090   1.084       .  S
C1084      C1085   1.402       .  A
C1085      C1086   1.404       .  A
C1085      N1092   1.429       .  S
C1086      C1087   1.408       .  A
C1086      H1091   1.084       .  S
C1087      C1088   1.412       .  A
C1088      N1089   1.432       .  S
N1089      H1093   1.045       .  S
N1089      H1094   1.046       .  S
N1092      H1095   1.045       .  S
N1092      H1096   1.045       .  S
C1097      C1098   1.407       .  A
C1097      C1102   1.392       .  A
C1097      H1104   1.084       .  S
C1098      C1283   1.487   1_545  S
C1098      C1099   1.416       .  A
C1099      C1100   1.410       .  A
C1099      N1106   1.431       .  S
C1100      C1101   1.408       .  A
C1100      H1105   1.084       .  S
C1101      C1102   1.406       .  A
C1102      N1103   1.434       .  S
N1103      H1107   1.045       .  S
N1103      H1108   1.046       .  S
N1106      H1493   1.046   1_545  S
N1106      H1110   1.044       .  S
H1109      N1490   1.046       .  S
C1111      C1112   1.404       .  A
C1111      C1116   1.405       .  A
C1111      H1118   1.084       .  S
C1112      C1113   1.416       .  A
C1113      C1114   1.402       .  A
C1113      N1120   1.433       .  S
C1114      C1115   1.399       .  A
C1114      H1119   1.084       .  S
C1115      C1116   1.411       .  A
C1116      N1117   1.432       .  S
N1117      H1121   1.045       .  S
N1117      H1122   1.045       .  S
N1120      H1123   1.046       .  S
N1120      H1124   1.046       .  S
C1125      C1126   1.400       .  A
C1125      C1130   1.401       .  A
C1125      H1132   1.085       .  S
C1126      C1127   1.407       .  A
C1127      C1128   1.402       .  A
C1127      N1134   1.433       .  S
C1128      C1129   1.403       .  A
C1128      H1133   1.084       .  S
C1129      C1130   1.411       .  A
C1130      N1131   1.433       .  S
N1131      H1135   1.044       .  S
N1131      H1136   1.047       .  S
N1134      H1137   1.045       .  S
N1134      H1138   1.046       .  S
C1139      C1140   1.404       .  A
C1139      C1144   1.404       .  A
C1139      H1146   1.084       .  S
C1140      C1141   1.416       .  A
C1141      C1142   1.398       .  A
C1141      N1148   1.433       .  S
C1142      C1143   1.397       .  A
C1142      H1147   1.084       .  S
C1143      C1144   1.409       .  A
C1144      N1145   1.432       .  S
N1145      H1149   1.045       .  S
N1145      H1150   1.046       .  S
N1148      H1151   1.046       .  S
N1148      H1152   1.046       .  S
O1153      C1168   1.269       .  A
O1153     Al1161   1.919       .  S
C1154      O1164   1.268       .  A
C1154      O1155   1.263       .  A
C1154      C1527   1.468       .  S
O1155     Al1157   1.892       .  S
O1156      C1158   1.259       .  A
O1156     Al1157   1.901       .  S
Al1157     O1165   1.901       .  S
Al1157     O1167   1.903       .  S
Al1157     O1166   1.776       .  S
C1158      O1171   1.260       .  A
C1158      C1485   1.482       .  S
O1159      C1169   1.262       .  A
O1159     Al1161   1.923       .  S
O1160      C1173   1.268       .  A
O1160     Al1170   1.944       .  S
Al1161     O1174   1.879       .  S
Al1161     O1171   1.919       .  S
Al1161     O1166   1.781       .  S
O1162      C1169   1.255       .  A
O1162     Al1170   1.877       .  S
O1163      C1172   1.264       .  A
O1163     Al1170   1.925       .  S
O1164     Al1170   1.924       .  S
O1165      C1172   1.261       .  A
O1166     Al1170   1.786       .  S
O1167      C1168   1.268       .  A
C1168      C1496   1.483       .  S
C1169      C1513   1.469       .  S
C1172      C1454   1.498       .  S
C1173      O1174   1.259       .  A
C1173      C1471   1.493       .  S
O1175      C1190   1.269       .  A
O1175     Al1183   1.909       .  S
C1176      O1186   1.266       .  A
C1176      O1177   1.264       .  A
C1176      C1440   1.473       .  S
O1177     Al1179   1.899       .  S
O1178      C1180   1.258       .  A
O1178     Al1179   1.908       .  S
Al1179     O1187   1.914       .  S
Al1179     O1189   1.903       .  S
Al1179     O1188   1.779       .  S
C1180      O1193   1.258       .  A
C1180      C1398   1.486       .  S
O1181      C1191   1.263       .  A
O1181     Al1183   1.924       .  S
O1182      C1195   1.266       .  A
O1182     Al1192   1.933       .  S
Al1183     O1196   1.885       .  S
Al1183     O1193   1.913       .  S
Al1183     O1188   1.789       .  S
O1184      C1191   1.257       .  A
O1184     Al1192   1.876       .  S
O1185      C1194   1.268       .  A
O1185     Al1192   1.935       .  S
O1186     Al1192   1.917       .  S
O1187      C1194   1.263       .  A
O1188     Al1192   1.789       .  S
O1189      C1190   1.267       .  A
C1190      C1387   1.485       .  S
C1191      C1510   1.470       .  S
C1194      C1412   1.505       .  S
C1195      O1196   1.257       .  A
C1195      C1426   1.493       .  S
O1197      C1212   1.266       .  A
O1197     Al1205   1.906       .  S
C1198      O1208   1.269       .  A
C1198      O1199   1.263       .  A
C1198      C1370   1.476       .  S
O1199     Al1201   1.903       .  S
O1200      C1202   1.260       .  A
O1200     Al1201   1.921       .  S
Al1201     O1209   1.927       .  S
Al1201     O1211   1.905       .  S
Al1201     O1210   1.775       .  S
C1202      O1215   1.258       .  A
C1202      C1429   1.474       .  S
O1203      C1213   1.263       .  A
O1203     Al1205   1.918       .  S
O1204      C1217   1.268       .  A
O1204     Al1214   1.946       .  S
Al1205     O1218   1.887       .  S
Al1205     O1215   1.906       .  S
Al1205     O1210   1.778       .  S
O1206      C1213   1.256       .  A
O1206     Al1214   1.867       .  S
O1207      C1216   1.266       .  A
O1207     Al1214   1.923       .  S
O1208     Al1214   1.931       .  S
O1209      C1216   1.265       .  A
O1210     Al1214   1.781       .  S
O1211      C1212   1.268       .  A
C1212      C1524   1.481       .  S
C1213      C1356   1.468       .  S
C1216      C1415   1.506       .  S
C1217      O1218   1.258       .  A
O1219      C1234   1.263       .  A
O1219     Al1227   1.897   1_554  S
C1220      O1230   1.266       .  A
C1220      O1221   1.264       .  A
C1220      C1384   1.474       .  S
O1221     Al1223   1.900       .  S
O1222      C1224   1.262       .  A
O1222     Al1223   1.928       .  S
Al1223     O1231   1.948   1_556  S
Al1223     O1233   1.904   1_556  S
Al1223     O1232   1.779       .  S
C1224      O1237   1.259       .  A
C1224      C1314   1.485       .  S
O1225      C1235   1.262       .  A
O1225     Al1227   1.920       .  S
O1226      C1239   1.265   1_556  A
O1226     Al1236   1.929       .  S
Al1227     O1240   1.881   1_556  S
Al1227     O1237   1.909       .  S
Al1227     O1232   1.785       .  S
O1228      C1235   1.255       .  A
O1228     Al1236   1.873       .  S
O1229      C1238   1.264   1_556  A
O1229     Al1236   1.919       .  S
O1230     Al1236   1.914       .  S
O1231      C1238   1.268       .  A
O1232     Al1236   1.783       .  S
O1233      C1234   1.270       .  A
C1234      C1300   1.483       .  S
C1235      C1359   1.465       .  S
C1238      C1328   1.511       .  S
C1239      O1240   1.256       .  A
O1241      C1256   1.269       .  A
O1241     Al1249   1.916   1_556  S
C1242      O1252   1.267       .  A
C1242      O1243   1.264       .  A
C1242      C1499   1.474       .  S
O1243     Al1245   1.905       .  S
O1244      C1246   1.261       .  A
O1244     Al1245   1.926       .  S
Al1245     O1253   1.936       .  S
Al1245     O1255   1.913   1_554  S
Al1245     O1254   1.781       .  S
C1246      O1259   1.257       .  A
C1246      C1342   1.475       .  S
O1247      C1257   1.266       .  A
O1247     Al1249   1.935       .  S
O1248      C1261   1.269       .  A
O1248     Al1258   1.956       .  S
Al1249     O1262   1.885   1_554  S
Al1249     O1259   1.903       .  S
Al1249     O1254   1.779       .  S
O1250      C1257   1.259       .  A
O1250     Al1258   1.890       .  S
O1251      C1260   1.271       .  A
O1251     Al1258   1.937       .  S
O1252     Al1258   1.926       .  S
O1253      C1260   1.268       .  A
O1254     Al1258   1.784       .  S
O1255      C1256   1.269       .  A
C1256      C1373   1.489       .  S
C1257      C1289   1.478       .  S
C1260      C1331   1.508       .  S
C1261      O1262   1.257   1_554  A
O1263      C1278   1.267       .  A
O1263     Al1271   1.916       .  S
C1264      O1274   1.268       .  A
C1264      O1265   1.266       .  A
C1264      C1303   1.477       .  S
O1265     Al1267   1.898       .  S
O1266      C1268   1.263       .  A
O1266     Al1267   1.937       .  S
Al1267     O1275   1.936       .  S
Al1267     O1277   1.896       .  S
Al1267     O1276   1.774       .  S
C1268      O1281   1.259       .  A
C1268      C1468   1.484       .  S
O1269      C1279   1.267       .  A
O1269     Al1271   1.940       .  S
O1270      C1283   1.266       .  A
O1270     Al1280   1.949       .  S
Al1271     O1284   1.867       .  S
Al1271     O1281   1.910       .  S
Al1271     O1276   1.776       .  S
O1272      C1279   1.257       .  A
O1272     Al1280   1.878       .  S
O1273      C1282   1.267       .  A
O1273     Al1280   1.925       .  S
O1274     Al1280   1.917       .  S
O1275      C1282   1.267       .  A
O1276     Al1280   1.786       .  S
O1277      C1278   1.268       .  A
C1278      C1443   1.481       .  S
C1279      C1286   1.477       .  S
C1282      C1457   1.505       .  S
C1283      O1284   1.254       .  A
C1285      C1286   1.403   1_545  A
C1286      C1287   1.412       .  A
C1287      C1288   1.404       .  A
C1287      N1294   1.433       .  S
C1288      H1293   1.084       .  S
C1289      C1290   1.410       .  A
C1290      N1291   1.433       .  S
N1291      H1295   1.045       .  S
N1291      H1296   1.046       .  S
N1294      H1297   1.045       .  S
N1294      H1298   1.046       .  S
C1299      C1300   1.402       .  A
C1299      C1304   1.399       .  A
C1299      H1306   1.084       .  S
C1300      C1301   1.424       .  A
C1301      C1302   1.393       .  A
C1301      N1308   1.433       .  S
C1302      C1303   1.400       .  A
C1302      H1307   1.084       .  S
C1303      C1304   1.407       .  A
C1304      N1305   1.426       .  S
N1305      H1309   1.045       .  S
N1305      H1310   1.046       .  S
N1308      H1311   1.045       .  S
N1308      H1312   1.045       .  S
C1313      C1314   1.407   1_554  A
C1313      C1318   1.415       .  A
C1313      H1320   1.084       .  S
C1314      C1315   1.403       .  A
C1315      C1316   1.404       .  A
C1315      N1322   1.433       .  S
C1316      C1317   1.414       .  A
C1316      H1321   1.083       .  S
C1317      C1318   1.413   1_556  A
C1318      N1319   1.431       .  S
N1319      H1323   1.046       .  S
N1319      H1324   1.045       .  S
N1322      H1325   1.046       .  S
N1322      H1326   1.046       .  S
C1327      C1328   1.407       .  A
C1327      C1332   1.410       .  A
C1327      H1334   1.084       .  S
C1328      C1329   1.419   1_554  A
C1329      C1330   1.419   1_556  A
C1329      N1336   1.431       .  S
C1330      C1331   1.407       .  A
C1330      H1335   1.083   1_554  S
C1331      C1332   1.418       .  A
C1332      N1333   1.433       .  S
N1333      H1337   1.046       .  S
N1333      H1338   1.045       .  S
N1336      H1339   1.045   1_556  S
N1336      H1340   1.045       .  S
C1341      C1342   1.398       .  A
C1341      C1346   1.405       .  A
C1341      H1348   1.083       .  S
C1342      C1343   1.410   1_554  A
C1343      C1344   1.410       .  A
C1343      N1350   1.438       .  S
C1344      C1345   1.407   1_556  A
C1344      H1349   1.083       .  S
C1345      C1346   1.416       .  A
C1346      N1347   1.433       .  S
N1347      H1351   1.045       .  S
N1350      H1353   1.047       .  S
N1350      H1354   1.044       .  S
C1355      C1360   1.400       .  A
C1355      H1362   1.084       .  S
C1356      C1357   1.411       .  A
C1357      C1358   1.396       .  A
C1357      N1364   1.434       .  S
C1358      H1363   1.085       .  S
C1359      C1360   1.413       .  A
C1360      N1361   1.434       .  S
N1361      H1365   1.046       .  S
N1361      H1366   1.045       .  S
N1364      H1367   1.046       .  S
N1364      H1368   1.045       .  S
C1369      C1370   1.405       .  A
C1369      C1374   1.409       .  A
C1369      H1376   1.084       .  S
C1370      C1371   1.404       .  A
C1371      C1372   1.399       .  A
C1371      N1378   1.433       .  S
C1372      C1373   1.408       .  A
C1372      H1377   1.084       .  S
C1373      C1374   1.414       .  A
C1374      N1375   1.432       .  S
N1375      H1379   1.046       .  S
N1375      H1380   1.046       .  S
N1378      H1381   1.045       .  S
N1378      H1382   1.045       .  S
C1383      C1384   1.404       .  A
C1383      C1388   1.406       .  A
C1383      H1390   1.083       .  S
C1384      C1385   1.407       .  A
C1385      C1386   1.396       .  A
C1385      N1392   1.433       .  S
C1386      C1387   1.407       .  A
C1386      H1391   1.084       .  S
C1387      C1388   1.414       .  A
C1388      N1389   1.432       .  S
N1389      H1393   1.046       .  S
N1389      H1394   1.046       .  S
N1392      H1395   1.046       .  S
N1392      H1396   1.046       .  S
C1397      C1398   1.410       .  A
C1397      C1402   1.417       .  A
C1397      H1404   1.084       .  S
C1398      C1399   1.406       .  A
C1399      C1400   1.395       .  A
C1399      N1406   1.432       .  S
C1400      C1401   1.408       .  A
C1400      H1405   1.084       .  S
C1401      C1402   1.412       .  A
C1402      N1403   1.431       .  S
N1403      H1407   1.045       .  S
N1403      H1408   1.046       .  S
N1406      H1409   1.046       .  S
N1406      H1410   1.044       .  S
C1411      C1412   1.408       .  A
C1411      H1418   1.084       .  S
C1412      C1413   1.416       .  A
C1413      N1420   1.431       .  S
C1414      C1415   1.412       .  A
C1414      H1419   1.083       .  S
C1415      C1416   1.420       .  A
C1416      N1417   1.439       .  S
N1417      H1421   1.044       .  S
N1417      H1422   1.047       .  S
N1420      H1423   1.045       .  S
N1420      H1424   1.046       .  S
C1425      C1426   1.408       .  A
C1425      C1430   1.406       .  A
C1425      H1432   1.084       .  S
C1426      C1427   1.418       .  A
C1427      C1428   1.408       .  A
C1427      N1434   1.433       .  S
C1428      C1429   1.400       .  A
C1428      H1433   1.084       .  S
C1429      C1430   1.405       .  A
C1430      N1431   1.433       .  S
N1431      H1435   1.045       .  S
N1431      H1436   1.046       .  S
N1434      H1437   1.045       .  S
N1434      H1438   1.046       .  S
C1439      C1440   1.402       .  A
C1439      C1444   1.400       .  A
C1439      H1446   1.084       .  S
C1440      C1441   1.407       .  A
C1441      C1442   1.400       .  A
C1441      N1448   1.430       .  S
C1442      C1443   1.403       .  A
C1442      H1447   1.084       .  S
C1443      C1444   1.415       .  A
C1444      N1445   1.433       .  S
N1445      H1449   1.046       .  S
N1445      H1450   1.046       .  S
N1448      H1451   1.046       .  S
N1448      H1452   1.044       .  S
C1453      C1454   1.405       .  A
C1453      H1460   1.084       .  S
C1454      C1455   1.414       .  A
C1455      N1462   1.431       .  S
C1456      C1457   1.412       .  A
C1456      H1461   1.083       .  S
C1457      C1458   1.414       .  A
C1458      N1459   1.433       .  S
N1459      H1463   1.045       .  S
N1459      H1464   1.046       .  S
N1462      H1465   1.045       .  S
N1462      H1466   1.046       .  S
C1467      C1468   1.405       .  A
C1467      C1472   1.412       .  A
C1467      H1474   1.084       .  S
C1468      C1469   1.403       .  A
C1469      C1470   1.403       .  A
C1469      N1476   1.425       .  S
C1470      C1471   1.407       .  A
C1470      H1475   1.084       .  S
C1471      C1472   1.414       .  A
C1472      N1473   1.432       .  S
N1473      H1477   1.047       .  S
N1473      H1478   1.044       .  S
N1476      H1479   1.046       .  S
N1476      H1480   1.045       .  S
C1481      C1482   1.407       .  A
C1481      C1486   1.393       .  A
C1481      H1488   1.084       .  S
C1482      C1483   1.415       .  A
C1483      C1484   1.412       .  A
C1483      N1490   1.431       .  S
C1484      C1485   1.408       .  A
C1484      H1489   1.083       .  S
C1485      C1486   1.408       .  A
C1486      N1487   1.434       .  S
N1487      H1491   1.045       .  S
N1487      H1492   1.046       .  S
N1490      H1494   1.044       .  S
C1495      C1496   1.406       .  A
C1495      C1500   1.405       .  A
C1495      H1502   1.084       .  S
C1496      C1497   1.414       .  A
C1497      C1498   1.400       .  A
C1497      N1504   1.433       .  S
C1498      C1499   1.400       .  A
C1498      H1503   1.084       .  S
C1499      C1500   1.409       .  A
C1500      N1501   1.432       .  S
N1501      H1505   1.045       .  S
N1501      H1506   1.046       .  S
N1504      H1507   1.046       .  S
N1504      H1508   1.045       .  S
C1509      C1510   1.402       .  A
C1509      C1514   1.404       .  A
C1509      H1516   1.084       .  S
C1510      C1511   1.409       .  A
C1511      C1512   1.401       .  A
C1511      N1518   1.433       .  S
C1512      C1513   1.401       .  A
C1512      H1517   1.084       .  S
C1513      C1514   1.410       .  A
C1514      N1515   1.433       .  S
N1515      H1519   1.045       .  S
N1515      H1520   1.047       .  S
N1518      H1521   1.045       .  S
N1518      H1522   1.046       .  S
C1523      C1524   1.405       .  A
C1523      C1528   1.402       .  A
C1523      H1530   1.084       .  S
C1524      C1525   1.416       .  A
C1525      C1526   1.398       .  A
C1525      N1532   1.433       .  S
C1526      C1527   1.398       .  A
C1526      H1531   1.084       .  S
C1527      C1528   1.408       .  A
C1528      N1529   1.432       .  S
N1529      H1533   1.045       .  S
N1529      H1534   1.045       .  S
N1532      H1535   1.046       .  S
N1532      H1536   1.046       .  S
