geometry optimzed in LAMMPS
_audit_creation_date              2020-12-01 
_audit_creation_method            'lammps2cif' 
_symmetry_space_group_name_H-M    'P1' 
_symmetry_Int_Tables_number       1 
_symmetry_cell_setting            triclinic 
loop_ 
_symmetry_equiv_pos_as_xyz 
  x,y,z 
_cell_length_a                    28.49507612 
_cell_length_b                    28.45538419865281 
_cell_length_c                    39.140765589372286 
_cell_angle_alpha                 90.5408861002301 
_cell_angle_beta                  90.11606803543393 
_cell_angle_gamma                 90.022161942411 
loop_ 
_atom_site_label 
_atom_site_type_symbol 
_atom_site_fract_x 
_atom_site_fract_y 
_atom_site_fract_z 
_atom_site_charge 
O1          O  0.09173569  0.60876467  0.67803165    -0.81700
O2          O  0.07789407  0.72093254  0.54788684    -0.66400
O3          O  0.08165002  0.68857705  0.64091119    -1.13000
C4          C  0.93088052  0.62151009  0.62053596     1.05200
O5          O  0.00160997  0.73727741  0.54677582    -0.79600
O6          O  0.94877936  0.72797269  0.60218395    -0.67200
Ni7        Ni  0.13195547  0.65728736  0.66132722     1.34900
C8          C  0.96421855  0.74346474  0.63056399     0.83900
O9          O  0.13966403  0.73825479  0.59852835    -0.80200
O10         O  0.17317624  0.70530251  0.64526997    -0.90400
C11         C  0.04373404  0.74573039  0.53778875     0.83500
O12         O  0.15130085  0.61766722  0.62462493    -0.68600
O13         O  0.93486797  0.63460132  0.58949696    -0.87900
C14         C  0.14813579  0.62178939  0.59253438     0.84300
C15         C  0.17301205  0.73421835  0.62038515     1.05900
H16         H  0.03365689  0.63491595  0.58439671     0.37700
O17         O  0.02574405  0.66558493  0.59349569    -1.10600
O18         O  0.99418833  0.72132344  0.64894552    -0.67200
Ni19       Ni  0.02226228  0.65902270  0.64215309     1.26300
O20         O  0.11984651  0.65019190  0.57822742    -0.67500
O21         O  0.96121836  0.63070586  0.64346331    -0.79700
C22         C  0.05946363  0.61875953  0.69918589     0.83700
O23         O  0.02746588  0.64798637  0.69056041    -0.66900
Ni24       Ni  0.97118138  0.68451938  0.56905902     1.27400
Ni25       Ni  0.08234281  0.70276730  0.59425083     1.26100
H26         H  0.07927527  0.71812506  0.65312851     0.38200
O27         O  0.08880851  0.58435487  0.86259870    -0.81700
O28         O  0.22879981  0.57766633  0.97925739    -0.66400
O29         O  0.17334690  0.58549770  0.89234656    -1.13000
C30         C  0.12962133  0.42488734  0.90622526     1.05200
O31         O  0.24046868  0.50029420  0.98308465    -0.79600
O32         O  0.23404748  0.45548521  0.92237987    -0.67200
Ni33       Ni  0.12840709  0.63177167  0.88250211     1.34900
C34         C  0.24620687  0.47846646  0.89612686     0.83900
O35         O  0.22741479  0.64304891  0.93009711    -0.80200
O36         O  0.16904993  0.68001399  0.90110486    -0.90400
C37         C  0.25000430  0.54256695  0.99156156     0.83500
O38         O  0.09325467  0.63095872  0.92425961    -0.68600
O39         O  0.14430120  0.42811439  0.93687463    -0.87900
C40         C  0.11169375  0.63417277  0.95368713     0.84300
C41         C  0.20853180  0.67976976  0.91696959     1.05900
H42         H  0.13593687  0.52856321  0.94895625     0.37700
O43         O  0.16563819  0.52307870  0.93774521    -1.10600
O44         O  0.21836415  0.50538676  0.87935010    -0.67200
Ni45       Ni  0.15307189  0.52241527  0.88924610     1.26300
O46         O  0.15050714  0.61476256  0.96068909    -0.67500
O47         O  0.13366278  0.45786936  0.88484104    -0.79700
C48         C  0.10415108  0.56140888  0.83692613     0.83700
O49         O  0.13665583  0.53102747  0.84186985    -0.66900
Ni50       Ni  0.19087984  0.46784992  0.95823019     1.27400
Ni51       Ni  0.19895339  0.58255113  0.93603063     1.26100
H52         H  0.19879340  0.59000242  0.87640993     0.38200
O53         O  0.44525572  0.94923895  0.68307789    -0.81700
O54         O  0.44511146  0.82022731  0.55529465    -0.66400
O55         O  0.44436647  0.86754268  0.64557136    -1.13000
C56         C  0.59618449  0.92714771  0.61989922     1.05200
O57         O  0.52227607  0.80737022  0.55167506    -0.79600
O58         O  0.57891354  0.82314809  0.60533470    -0.67200
Ni59       Ni  0.39835881  0.91019229  0.66095103     1.34900
C60         C  0.56169302  0.80555882  0.63228371     0.83900
O61         O  0.38352544  0.81564869  0.60778721    -0.80200
O62         O  0.34976758  0.87130763  0.64126444    -0.90400
C63         C  0.47991867  0.79663980  0.54430645     0.83500
O64         O  0.39607603  0.95042826  0.62170390    -0.68600
O65         O  0.58816400  0.91586974  0.58873657    -0.87900
C66         C  0.39103221  0.93663935  0.59088670     0.84300
C67         C  0.34818086  0.83306878  0.62375725     1.05900
H68         H  0.49158984  0.91271888  0.58737615     0.37700
O69         O  0.49958203  0.88227346  0.59645406    -1.10600
O70         O  0.52998361  0.82657483  0.65005211    -0.67200
Ni71       Ni  0.50637901  0.89090364  0.64457193     1.26300
O72         O  0.40657944  0.89712979  0.58065477    -0.67500
O73         O  0.56945853  0.91479074  0.64414371    -0.79700
C74         C  0.47562244  0.93214435  0.70360554     0.83700
O75         O  0.50510067  0.90184325  0.69266780    -0.66900
Ni76       Ni  0.55276865  0.86261127  0.57118419     1.27400
Ni77       Ni  0.44236368  0.84651879  0.60016114     1.26100
H78         H  0.44323309  0.84048638  0.66029430     0.38200
O79         O  0.43738583  0.94025767  0.86478871    -0.81700
O80         O  0.29456917  0.95402893  0.98169640    -0.66400
O81         O  0.35135161  0.95148481  0.89504230    -1.13000
C82         C  0.39997249  0.10460277  0.91293798     1.05200
O83         O  0.30629310  0.02706601  0.00157317    -0.79600
O84         O  0.28674446  0.05105625  0.93678915    -0.67200
Ni85       Ni  0.38740211  0.90002395  0.87962292     1.34900
C86         C  0.28725806  0.05082850  0.90439939     0.83900
O87         O  0.28925049  0.89568539  0.92897844    -0.80200
O88         O  0.33891002  0.85769918  0.89347306    -0.90400
C89         C  0.28677745  0.98685340  0.00303811     0.83500
O90         O  0.42115844  0.88674600  0.92055048    -0.68600
O91         O  0.36544885  0.10549790  0.93354407    -0.87900
C92         C  0.40595509  0.88602824  0.95098243     0.84300
C93         C  0.30237095  0.85893398  0.91245251     1.05900
H94         H  0.39320572  0.99707691  0.95996951     0.37700
O95         O  0.36602749  0.00560631  0.94655364    -1.10600
O96         O  0.32425464  0.04147532  0.88650817    -0.67200
Ni97       Ni  0.38345966  0.00895465  0.89914654     1.26300
O98         O  0.37073814  0.91031435  0.96030466    -0.67500
O99         O  0.41766827  0.06624454  0.90309210    -0.79700
C100        C  0.42972316  0.97291853  0.84356594     0.83700
O101        O  0.40196171  0.00601351  0.85208841    -0.66900
Ni102      Ni  0.33830534  0.06117636  0.96583881     1.27400
Ni103      Ni  0.32555046  0.95113261  0.93892040     1.26100
H104        H  0.32589885  0.95495425  0.87891142     0.38200
O105        O  0.59232438  0.45253065  0.66179499    -0.81700
O106        O  0.73889400  0.46337610  0.55033790    -0.66400
O107        O  0.67783758  0.45985779  0.63480176    -1.13000
C108        C  0.63404309  0.61833237  0.61851238     1.05200
O109        O  0.73042533  0.53656870  0.53141058    -0.79600
O110        O  0.74394820  0.56778516  0.59556890    -0.67200
Ni111      Ni  0.63916655  0.40916908  0.64693375     1.34900
C112        C  0.74719234  0.55811265  0.62714199     0.83900
O113        O  0.73980937  0.40393309  0.60130585    -0.80200
O114        O  0.68612213  0.36463514  0.63252915    -0.90400
C115        C  0.74888054  0.49590930  0.52989811     0.83500
O116        O  0.60629106  0.40030805  0.60490751    -0.68600
O117        O  0.66233942  0.61682250  0.59355064    -0.87900
C118        C  0.62303714  0.40042904  0.57494919     0.84300
C119        C  0.72475507  0.36669047  0.61587487     1.05900
H120        H  0.63901864  0.50883082  0.57266321     0.37700
O121        O  0.66686589  0.51703482  0.58556572    -1.10600
O122        O  0.71218041  0.54593395  0.64615885    -0.67200
Ni123      Ni  0.64981297  0.52005020  0.63364528     1.26300
O124        O  0.66015409  0.42286247  0.56763650    -0.67500
O125        O  0.62100104  0.58142884  0.63372017    -0.79700
C126        C  0.60225681  0.47954177  0.68663036     0.83700
O127        O  0.63056279  0.51369411  0.68100507    -0.66900
Ni128      Ni  0.69381053  0.57163789  0.56468668     1.27400
Ni129      Ni  0.70558181  0.46070711  0.59194316     1.26100
H130        H  0.70284192  0.46049860  0.65152105     0.38200
O131        O  0.59058392  0.42771958  0.84592264    -0.81700
O132        O  0.57593513  0.30249472  0.97208320    -0.66400
O133        O  0.58222151  0.34575624  0.88107340    -1.13000
C134        C  0.43177467  0.41176843  0.90448008     1.05200
O135        O  0.49913878  0.28805108  0.97167575    -0.79600
O136        O  0.44598750  0.30535725  0.91649377    -0.67200
Ni137      Ni  0.63239029  0.38253845  0.86548021     1.34900
C138        C  0.46414120  0.28921240  0.88924870     0.83900
O139        O  0.63823491  0.29128210  0.92132382    -0.80200
O140        O  0.67637364  0.33853355  0.88429686    -0.90400
C141        C  0.54058576  0.27918115  0.98199367     0.83500
O142        O  0.64013754  0.42290171  0.90412808    -0.68600
O143        O  0.43712803  0.39698193  0.93491844    -0.87900
C144        C  0.64066643  0.41214799  0.93537977     0.84300
C145        C  0.67482792  0.30362894  0.90473177     1.05900
H146        H  0.53369033  0.39369796  0.93915206     0.37700
O147        O  0.52545604  0.36380609  0.92886943    -1.10600
O148        O  0.49572270  0.31114255  0.87230140    -0.67200
Ni149      Ni  0.52201949  0.37390103  0.88053399     1.26300
O150        O  0.61884938  0.37635486  0.94656175    -0.67500
O151        O  0.46009759  0.40161063  0.88032536    -0.79700
C152        C  0.55937223  0.41689619  0.82406273     0.83700
O153        O  0.52726779  0.38742096  0.83222045    -0.66900
Ni154      Ni  0.47072845  0.34373996  0.95218005     1.27400
Ni155      Ni  0.58134694  0.32612137  0.92682747     1.26100
H156        H  0.58158978  0.31793628  0.86672785     0.38200
O157        O  0.94106132  0.09136085  0.66539745    -0.81700
O158        O  0.80172443  0.09014861  0.54661151    -0.66400
O159        O  0.85677933  0.09114516  0.63392502    -1.13000
C160        C  0.89326740  0.92939018  0.61694579     1.05200
O161        O  0.79662479  0.01393132  0.53320057    -0.79600
O162        O  0.78616829  0.97852322  0.59503293    -0.67200
Ni163      Ni  0.90015725  0.13822546  0.64693979     1.34900
C164        C  0.78105954  0.99186703  0.62583347     0.83900
O165        O  0.80327337  0.15146021  0.59801948    -0.80200
O166        O  0.85935393  0.18699103  0.62999284    -0.90400
C167        C  0.78486162  0.05654237  0.52910085     0.83500
O168        O  0.93653391  0.14015743  0.60597394    -0.68600
O169        O  0.86921472  0.93149133  0.58967876    -0.87900
C170        C  0.92063453  0.14282121  0.57576079     0.84300
C171        C  0.82084590  0.18775839  0.61297658     1.05900
H172        H  0.89408840  0.03647751  0.57354993     0.37700
O173        O  0.86495832  0.03123833  0.58528561    -1.10600
O174        O  0.81448917  0.00812362  0.64485505    -0.67200
Ni175      Ni  0.87893992  0.02852024  0.63390369     1.26300
O176        O  0.88160541  0.12460389  0.56736471    -0.67500
O177        O  0.90228174  0.96527912  0.63515910    -0.79700
C178        C  0.92576227  0.06548826  0.68919219     0.83700
O179        O  0.89520927  0.03408033  0.68173666    -0.66900
Ni180      Ni  0.83568709  0.97762047  0.56346770     1.27400
Ni181      Ni  0.83187863  0.09131742  0.58987622     1.26100
H182        H  0.83084213  0.09361995  0.64977888     0.38200
O183        O  0.94688187  0.08843694  0.85224854    -0.81700
O184        O  0.94574403  0.21501178  0.97847279    -0.66400
O185        O  0.94814357  0.17179549  0.88755167    -1.13000
C186        C  0.10639880  0.12648997  0.90992362     1.05200
O187        O  0.02022158  0.23553215  0.98482314    -0.79600
O188        O  0.06943301  0.23466020  0.92743672    -0.67200
Ni189      Ni  0.90058816  0.13065733  0.87101496     1.34900
C190        C  0.05643498  0.24192089  0.89698728     0.83900
O191        O  0.88682458  0.22243265  0.92596422    -0.80200
O192        O  0.85279072  0.17263175  0.88782874    -0.90400
C193        C  0.97689806  0.24085406  0.99181000     0.83500
O194        O  0.89085303  0.09133167  0.91024585    -0.68600
O195        O  0.10249770  0.14660786  0.93907945    -0.87900
C196        C  0.89038176  0.10390757  0.94153010     0.84300
C197        C  0.85176485  0.20820826  0.90812791     1.05900
H198        H  0.00029492  0.12996631  0.94745892     0.37700
O199        O  0.00562854  0.15995386  0.93671407    -1.10600
O200        O  0.03343976  0.21201889  0.87862897    -0.67200
Ni201      Ni  0.01030765  0.14825974  0.88815089     1.26300
O202        O  0.91209693  0.14024152  0.95181442    -0.67500
O203        O  0.07319861  0.12421703  0.88827828    -0.79700
C204        C  0.97611590  0.10394776  0.83048494     0.83700
O205        O  0.00683210  0.13409539  0.84005440    -0.66900
Ni206      Ni  0.05761020  0.18852788  0.96053374     1.27400
Ni207      Ni  0.94606183  0.19223000  0.93303620     1.26100
H208        H  0.94724242  0.19930506  0.87326378     0.38200
O209        O  0.79013566  0.52662813  0.03566943    -0.81700
O210        O  0.89712194  0.50732015  0.18175402    -0.66400
O211        O  0.85807034  0.50704161  0.08717474    -1.13000
C212        C  0.80081091  0.35751595  0.11805518     1.05200
O213        O  0.93306678  0.44294642  0.16612899    -0.79600
O214        O  0.91820905  0.38982016  0.10979322    -0.67200
Ni215      Ni  0.83020588  0.56170999  0.06690738     1.34900
C216        C  0.90192131  0.38882629  0.07964672     0.83900
O217        O  0.90980986  0.56957151  0.13189401    -0.80200
O218        O  0.86497669  0.60693994  0.09446957    -0.90400
C219        C  0.92447959  0.47341295  0.18913374     0.83500
O220        O  0.78180970  0.56101957  0.09921565    -0.68600
O221        O  0.83774633  0.35620462  0.13664876    -0.87900
C222        C  0.78296588  0.55842550  0.13153449     0.84300
C223        C  0.89649116  0.60693996  0.11756065     1.05900
H224        H  0.82148626  0.45467722  0.15435377     0.37700
O225        O  0.84656629  0.45210731  0.13785057    -1.10600
O226        O  0.86566661  0.41208730  0.07135783    -0.67200
Ni227      Ni  0.81974589  0.45107873  0.09427996     1.26300
O228        O  0.81846406  0.54312380  0.14872539    -0.67500
O229        O  0.78554557  0.39481297  0.10380925    -0.79700
C230        C  0.77463315  0.48481751  0.03299629     0.83700
O231        O  0.78820065  0.45175451  0.05184114    -0.66900
Ni232      Ni  0.88465842  0.40080860  0.15123897     1.27400
Ni233      Ni  0.87714034  0.51094897  0.13469153     1.26100
H234        H  0.88531271  0.49880412  0.07373983     0.38200
O235        O  0.02453161  0.29966006  0.48027894    -0.81700
O236        O  0.00506701  0.39301601  0.33682284    -0.66400
O237        O  0.00472093  0.37327885  0.43368865    -1.13000
C238        C  0.85156707  0.32144921  0.40744769     1.05200
O239        O  0.94485852  0.43890504  0.34870579    -0.79600
O240        O  0.89339432  0.43940768  0.40725854    -0.67200
Ni241      Ni  0.05821779  0.34930572  0.45747690     1.34900
C242        C  0.89181418  0.42824522  0.43850940     0.83900
O243        O  0.07307919  0.40387065  0.38394976    -0.80200
O244        O  0.09882564  0.39561070  0.43760490    -0.90400
C245        C  0.97450276  0.42303615  0.32719738     0.83500
O246        O  0.07502173  0.30406540  0.42367264    -0.68600
O247        O  0.85177042  0.35713766  0.38764557    -0.87900
C248        C  0.05521275  0.29024483  0.39629348     0.84300
C249        C  0.10444492  0.40874494  0.40688272     1.05900
H250        H  0.94545017  0.33038918  0.37126590     0.37700
O251        O  0.94683172  0.35837069  0.38541350    -1.10600
O252        O  0.91115719  0.39118688  0.44969347    -0.67200
Ni253      Ni  0.94607206  0.33903883  0.43094826     1.26300
O254        O  0.02918971  0.31660105  0.37780029    -0.67500
O255        O  0.88732527  0.30750437  0.42448062    -0.79700
C256        C  0.98202068  0.29203511  0.48827639     0.83700
O257        O  0.94827937  0.31576317  0.47629314    -0.66900
Ni258      Ni  0.89918202  0.39792799  0.36888836     1.27400
Ni259      Ni  0.00906243  0.38166283  0.38504282     1.26100
H260        H  0.99842799  0.40384840  0.44364451     0.38200
O261        O  0.73336575  0.00156339  0.04123751    -0.81700
O262        O  0.63569444  0.03373631  0.18269946    -0.66400
O263        O  0.65831506  0.02461359  0.08618452    -1.13000
C264        C  0.70130838  0.18267910  0.10578613     1.05200
O265        O  0.58647965  0.08767951  0.16503375    -0.79600
O266        O  0.58656991  0.13467185  0.10451654    -0.67200
Ni267      Ni  0.68319544  0.96912021  0.06526652     1.34900
C268        C  0.59988136  0.13460978  0.07359617     0.83900
O269        O  0.62906847  0.96051480  0.13924887    -0.80200
O270        O  0.63589007  0.93012083  0.08661895    -0.90400
C271        C  0.60290631  0.06312047  0.18931853     0.83500
O272        O  0.72685673  0.95555440  0.10065351    -0.68600
O273        O  0.66488230  0.18208677  0.12495336    -0.87900
C274        C  0.74102188  0.97947074  0.12623377     0.84300
C275        C  0.62253871  0.92752996  0.11765918     1.05900
H276        H  0.69611123  0.09246130  0.14591474     0.37700
O277        O  0.66903909  0.08798255  0.13132767    -1.10600
O278        O  0.63812376  0.11548133  0.06432638    -0.67200
Ni279      Ni  0.69032407  0.08483089  0.08623807     1.26300
O280        O  0.71460173  0.00789125  0.14313094    -0.67500
O281        O  0.71829439  0.14619807  0.09052034    -0.79700
C282        C  0.74073822  0.04346377  0.03117218     0.83700
O283        O  0.71655767  0.07825405  0.04158987    -0.66900
Ni284      Ni  0.62556716  0.13431727  0.14436194     1.27400
Ni285      Ni  0.64889028  0.02491130  0.13486737     1.26100
H286        H  0.62778506  0.02904508  0.07590915     0.38200
O287        O  0.50473770  0.25059477  0.47684961    -0.81700
O288        O  0.52160808  0.14701606  0.33662232    -0.66400
O289        O  0.52300042  0.17158560  0.43298926    -1.13000
C290        C  0.67516567  0.22345094  0.40566527     1.05200
O291        O  0.58205392  0.10217749  0.34952432    -0.79600
O292        O  0.63680893  0.10542524  0.40740132    -0.67200
Ni293      Ni  0.47044399  0.19783206  0.45672125     1.34900
C294        C  0.63758635  0.11832182  0.43854267     0.83900
O295        O  0.45395491  0.13941740  0.38461679    -0.80200
O296        O  0.43034655  0.14888506  0.43893856    -0.90400
C297        C  0.55269662  0.11701348  0.32749476     0.83500
O298        O  0.45079956  0.23836152  0.42129995    -0.68600
O299        O  0.67518924  0.18739518  0.38568154    -0.87900
C300        C  0.47210781  0.25212981  0.39483626     0.84300
C301        C  0.42366552  0.13489086  0.40825372     1.05900
H302        H  0.58154772  0.21181999  0.37002010     0.37700
O303        O  0.58034013  0.18441232  0.38441004    -1.10600
O304        O  0.61631007  0.15481332  0.44880809    -0.67200
Ni305      Ni  0.58117912  0.20546896  0.42967061     1.26300
O306        O  0.49870844  0.22562869  0.37676353    -0.67500
O307        O  0.63956223  0.23720292  0.42300983    -0.79700
C308        C  0.54750176  0.25602193  0.48558800     0.83700
O309        O  0.57916884  0.22858835  0.47493143    -0.66900
Ni310      Ni  0.62812688  0.14455857  0.36826451     1.27400
Ni311      Ni  0.51814368  0.16095063  0.38464928     1.26100
H312        H  0.52922424  0.14153912  0.44336698     0.38200
O313        O  0.51654357  0.73008712  0.04463760    -0.81700
O314        O  0.50012856  0.63830660  0.19321694    -0.66400
O315        O  0.50106018  0.66093579  0.09614775    -1.13000
C316        C  0.34739416  0.71178280  0.12334676     1.05200
O317        O  0.44197975  0.59314671  0.17723509    -0.79600
O318        O  0.38492794  0.59492742  0.12204390    -0.67200
Ni319      Ni  0.55345352  0.68770600  0.07240219     1.34900
C320        C  0.38615139  0.60536705  0.09075794     0.83900
O321        O  0.56781367  0.62768417  0.14646628    -0.80200
O322        O  0.59872460  0.65041724  0.09686755    -0.90400
C323        C  0.46922433  0.60740799  0.20071408     0.83500
O324        O  0.56055448  0.73765130  0.10378729    -0.68600
O325        O  0.34754921  0.67728885  0.14416762    -0.87900
C326        C  0.54833918  0.74617755  0.13432940     0.84300
C327        C  0.60210813  0.63130525  0.12606141     1.05900
H328        H  0.44185524  0.70354666  0.15853137     0.37700
O329        O  0.44297518  0.67548057  0.14445792    -1.10600
O330        O  0.40829506  0.64109174  0.08028015    -0.67200
Ni331      Ni  0.44159876  0.69390091  0.09897659     1.26300
O332        O  0.52784071  0.71621370  0.15384498    -0.67500
O333        O  0.38264195  0.72458594  0.10547667    -0.79700
C334        C  0.47330504  0.73703081  0.03846256     0.83700
O335        O  0.44108907  0.71506344  0.05348692    -0.66900
Ni336      Ni  0.39527477  0.63524045  0.16061237     1.27400
Ni337      Ni  0.50495451  0.65164057  0.14503593     1.26100
H338        H  0.49564403  0.63043999  0.08579181     0.38200
O339        O  0.29204890  0.50769163  0.48763974    -0.81700
O340        O  0.39059348  0.53777335  0.34901529    -0.66400
O341        O  0.36952487  0.53121464  0.44514741    -1.13000
C342        C  0.31430941  0.68397860  0.42728851     1.05200
O343        O  0.43372288  0.59949057  0.36260031    -0.79600
O344        O  0.43184884  0.64831494  0.42257920    -0.67200
Ni345      Ni  0.34555035  0.47635641  0.46633509     1.34900
C346        C  0.42190807  0.64661326  0.45403239     0.83900
O347        O  0.40302025  0.46829860  0.39372441    -0.80200
O348        O  0.39610388  0.43980738  0.44677308    -0.90400
C349        C  0.42090037  0.56872719  0.34073640     0.83500
O350        O  0.30471820  0.45712506  0.43049736    -0.68600
O351        O  0.34788913  0.68588783  0.40558072    -0.87900
C352        C  0.29117034  0.47621787  0.40302382     0.84300
C353        C  0.41056954  0.43687289  0.41593377     1.05900
H354        H  0.32420880  0.59282423  0.38622857     0.37700
O355        O  0.35258546  0.59175525  0.39976299    -1.10600
O356        O  0.38710431  0.62314849  0.46494322    -0.67200
Ni357      Ni  0.33495991  0.58877656  0.44584356     1.26300
O358        O  0.31508931  0.50744296  0.38742140    -0.67500
O359        O  0.30227739  0.64699627  0.44336800    -0.79700
C360        C  0.28802452  0.54881297  0.50046491     0.83700
O361        O  0.31464966  0.58215858  0.49166727    -0.66900
Ni362      Ni  0.39027049  0.64169096  0.38458268     1.27400
Ni363      Ni  0.37830923  0.53076677  0.39675328     1.26100
H364        H  0.39989939  0.53697306  0.45538957     0.38200
O365        O  0.01047661  0.79415675  0.05027983    -0.81700
O366        O  0.02088462  0.89463877  0.19237586    -0.66400
O367        O  0.02647700  0.87154036  0.09579872    -1.13000
C368        C  0.17733394  0.81834101  0.12665456     1.05200
O369        O  0.08202070  0.93819816  0.18031978    -0.79600
O370        O  0.14309005  0.93464817  0.12684992    -0.67200
Ni371      Ni  0.97536497  0.84683623  0.06992154     1.34900
C372        C  0.14258998  0.92519524  0.09513427     0.83900
O373        O  0.95660241  0.90612295  0.14213979    -0.80200
O374        O  0.93509567  0.89632353  0.08731080    -0.90400
C375        C  0.05246544  0.92383621  0.20212368     0.83500
O376        O  0.95272096  0.80493586  0.10338759    -0.68600
O377        O  0.17563755  0.85126431  0.14917056    -0.87900
C378        C  0.96706513  0.79252744  0.13262424     0.84300
C379        C  0.92822198  0.91274820  0.11744708     1.05900
H380        H  0.08056670  0.82788886  0.15907923     0.37700
O381        O  0.08106196  0.85612069  0.14556568    -1.10600
O382        O  0.11991101  0.89048465  0.08291425    -0.67200
Ni383      Ni  0.08459900  0.83792492  0.09967780     1.26300
O384        O  0.99494341  0.81748107  0.15121070    -0.67500
O385        O  0.14308766  0.80671887  0.10702022    -0.79700
C386        C  0.05354689  0.78888540  0.04217146     0.83700
O387        O  0.08447959  0.81667158  0.05365976    -0.66900
Ni388      Ni  0.12846440  0.89475343  0.16447607     1.27400
Ni389      Ni  0.01938184  0.88122017  0.14401078     1.26100
H390        H  0.03316328  0.90194584  0.08612863     0.38200
O391        O  0.23668578  0.04075835  0.48925152    -0.81700
O392        O  0.13976527  0.00028614  0.34889655    -0.66400
O393        O  0.16134772  0.01166375  0.44557033    -1.13000
C394        C  0.21913008  0.85933461  0.42940880     1.05200
O395        O  0.09797039  0.93876729  0.36348143    -0.79600
O396        O  0.09990519  0.89783217  0.42518481    -0.67200
Ni397      Ni  0.18274427  0.06868350  0.46632397     1.34900
C398        C  0.11146198  0.89820989  0.45644603     0.83900
O399        O  0.12607204  0.07217454  0.39277386    -0.80200
O400        O  0.13163946  0.10291357  0.44555405    -0.90400
C401        C  0.11070117  0.96781497  0.34079370     0.83500
O402        O  0.22379695  0.08641007  0.43054495    -0.68600
O403        O  0.18351613  0.85606469  0.40944165    -0.87900
C404        C  0.23783874  0.06588137  0.40350160     0.84300
C405        C  0.11787366  0.10463497  0.41450594     1.05900
H406        H  0.20670090  0.94819786  0.38647882     0.37700
O407        O  0.17889666  0.94965472  0.40056081    -1.10600
O408        O  0.14809455  0.91945989  0.46693430    -0.67200
Ni409      Ni  0.19836184  0.95509322  0.44636252     1.26300
O410        O  0.21445257  0.03389321  0.38782089    -0.67500
O411        O  0.23273998  0.89763342  0.44364559    -0.79700
C412        C  0.24532791  0.99983895  0.50066387     0.83700
O413        O  0.22155648  0.96418060  0.49160844    -0.66900
Ni414      Ni  0.14123445  0.89862641  0.38701803     1.27400
Ni415      Ni  0.15184719  0.00996052  0.39689170     1.26100
H416        H  0.13134854  0.00495170  0.45593517     0.38200
C417        C  0.08561542  0.97991983  0.24503204    -0.10000
C418        C  0.05919953  0.93887312  0.23834239     0.06200
C419        C  0.04662666  0.91038681  0.26608510    -0.03700
C420        C  0.06205094  0.92216363  0.29905162    -0.08200
C421        C  0.09090386  0.96169855  0.30557922     0.05300
C422        C  0.10164154  0.99141512  0.27798007    -0.03200
Br423      Br  0.13930415  0.04713171  0.28261374    -0.02900
H424        H  0.09556570  0.00253476  0.22413988     0.09200
H425        H  0.05287184  0.89859688  0.31954668     0.07300
Br426      Br  0.01292384  0.85226862  0.26072169    -0.03300
C427        C  0.31571456  0.76941605  0.43653286    -0.10000
C428        C  0.28932058  0.72787208  0.43420802     0.06200
C429        C  0.24009915  0.72999821  0.43575126    -0.03700
C430        C  0.21817277  0.77366472  0.43669004    -0.08200
C431        C  0.24447574  0.81545100  0.43600153     0.05300
C432        C  0.29380490  0.81313284  0.43759352    -0.03200
Br433      Br  0.33363900  0.86741514  0.43783028    -0.02900
H434        H  0.35373145  0.76788867  0.43618469     0.09200
H435        H  0.18015508  0.77496907  0.43625268     0.07300
Br436      Br  0.20073347  0.67537161  0.43271439    -0.03300
C437        C  0.30641072  0.78759810  0.12643123    -0.10000
C438        C  0.30422951  0.73908963  0.12072380     0.06200
C439        C  0.26069381  0.71737636  0.11430408    -0.03700
C440        C  0.21968667  0.74395099  0.11580145    -0.08200
C441        C  0.22148007  0.79217340  0.12338782     0.05300
C442        C  0.26552795  0.81435459  0.12772201    -0.03200
Br443      Br  0.27288234  0.88101565  0.13390755    -0.02900
H444        H  0.34002233  0.80458245  0.13061130     0.09200
H445        H  0.18625483  0.72671584  0.11145878     0.07300
Br446      Br  0.25551440  0.65232689  0.10164410    -0.03300
C447        C  0.41366767  0.55071716  0.27888905    -0.10000
C448        C  0.43969322  0.57125374  0.30542245     0.06200
C449        C  0.47995852  0.59804616  0.29701316    -0.03700
C450        C  0.49017056  0.60767321  0.26277086    -0.08200
C451        C  0.46171367  0.59034840  0.23620547     0.05300
C452        C  0.42417605  0.55953060  0.24470815    -0.03200
Br453      Br  0.38344248  0.52885993  0.21209676    -0.02900
H454        H  0.38333598  0.52926722  0.28469744     0.09200
H455        H  0.51995571  0.62987727  0.25701714     0.07300
Br456      Br  0.52318201  0.62225045  0.33061022    -0.03300
C457        C  0.36921984  0.06703878  0.39835319    -0.10000
C458        C  0.37705479  0.11571104  0.39933508     0.06200
C459        C  0.33886279  0.14636298  0.39449324    -0.03700
C460        C  0.29364149  0.12846220  0.39022047    -0.08200
C461        C  0.28496485  0.08010713  0.39216445     0.05300
C462        C  0.32338507  0.04912779  0.39528032    -0.03200
Br463      Br  0.31424007  0.98300603  0.40099800    -0.02900
H464        H  0.39824143  0.04312538  0.40236621     0.09200
H465        H  0.26440658  0.15276711  0.38894678     0.07300
Br466      Br  0.34526960  0.21323417  0.39764126    -0.03300
C467        C  0.41589339  0.36771575  0.37700675    -0.10000
C468        C  0.43474809  0.39365646  0.40461366     0.06200
C469        C  0.47375169  0.37578238  0.42222794    -0.03700
C470        C  0.49104418  0.33130557  0.41368459    -0.08200
C471        C  0.46858290  0.30292375  0.38900678     0.05300
C472        C  0.43207103  0.32221344  0.36948468    -0.03200
Br473      Br  0.40101414  0.28631477  0.33451752    -0.02900
H474        H  0.38620522  0.38143282  0.36292278     0.09200
H475        H  0.51923025  0.31685500  0.42892808     0.07300
Br476      Br  0.50278412  0.40920446  0.45948294    -0.03300
C477        C  0.82097802  0.99000083  0.10535875    -0.10000
C478        C  0.79216851  0.97572907  0.13248448     0.06200
C479        C  0.81158834  0.94677391  0.15778551    -0.03700
C480        C  0.85747105  0.92907154  0.15377947    -0.08200
C481        C  0.88413676  0.93919671  0.12438884     0.05300
C482        C  0.86609981  0.97174055  0.10087894    -0.03200
Br483      Br  0.90055494  0.99121634  0.06134669    -0.02900
H484        H  0.80676816  0.01260670  0.08579285     0.09200
H485        H  0.87106990  0.90483395  0.17253858     0.07300
Br486      Br  0.77579582  0.92816071  0.19671664    -0.03300
C487        C  0.55197823  0.87564041  0.12470602    -0.10000
C488        C  0.60015731  0.88343504  0.12966851     0.06200
C489        C  0.62707881  0.84784121  0.14507344    -0.03700
C490        C  0.60661660  0.80445333  0.15314367    -0.08200
C491        C  0.55953207  0.79483937  0.14517405     0.05300
C492        C  0.53172970  0.83179765  0.13222233    -0.03200
Br493      Br  0.46722928  0.82154924  0.12013805    -0.02900
H494        H  0.53057636  0.90276193  0.11327676     0.09200
H495        H  0.62891795  0.77637075  0.16216483     0.07300
Br496      Br  0.69333669  0.85451700  0.15152712    -0.03300
C497        C  0.57958316  0.05663336  0.28540311    -0.10000
C498        C  0.55781302  0.10038610  0.29158377     0.06200
C499        C  0.54770399  0.12932960  0.26349879    -0.03700
C500        C  0.56111048  0.11516107  0.23062345    -0.08200
C501        C  0.58520871  0.07256588  0.22456651     0.05300
C502        C  0.59319746  0.04252400  0.25244159    -0.03200
Br503      Br  0.62218650  0.98193984  0.24758439    -0.02900
H504        H  0.58728826  0.03361514  0.30657959     0.09200
H505        H  0.55437544  0.13904255  0.20979491     0.07300
Br506      Br  0.52042633  0.19082030  0.26820246    -0.03300
C507        C  0.03659828  0.20977688  0.41264145    -0.10000
C508        C  0.05996042  0.23927965  0.38956843     0.06200
C509        C  0.09716128  0.22056181  0.37017574    -0.03700
C510        C  0.11361513  0.17490131  0.37683090    -0.08200
C511        C  0.09341529  0.14759016  0.40280544     0.05300
C512        C  0.05301459  0.16444124  0.41938197    -0.03200
Br513      Br  0.02019860  0.12737253  0.45228194    -0.02900
H514        H  0.00778892  0.22355739  0.42774339     0.09200
H515        H  0.14412428  0.16192461  0.36322755     0.07300
Br516      Br  0.12784771  0.25705027  0.33594503    -0.03300
C517        C  0.15970625  0.47475662  0.39227352    -0.10000
C518        C  0.15138456  0.42658941  0.39720713     0.06200
C519        C  0.18958942  0.39528124  0.39580821    -0.03700
C520        C  0.23521265  0.41226434  0.39222565    -0.08200
C521        C  0.24435449  0.46063759  0.39091924     0.05300
C522        C  0.20596839  0.49196556  0.38929403    -0.03200
Br523      Br  0.21531513  0.55862871  0.38771318    -0.02900
H524        H  0.13064402  0.49926128  0.39307757     0.09200
H525        H  0.26419114  0.38768973  0.39377003     0.07300
Br526      Br  0.18209344  0.32898292  0.40185483    -0.03300
C527        C  0.76156145  0.22369300  0.41008360    -0.10000
C528        C  0.71955990  0.24944347  0.40911415     0.06200
C529        C  0.72133097  0.29892085  0.40976009    -0.03700
C530        C  0.76482909  0.32155345  0.41042316    -0.08200
C531        C  0.80691519  0.29576214  0.41049011     0.05300
C532        C  0.80501786  0.24628637  0.41080708    -0.03200
Br533      Br  0.86005810  0.20742691  0.40903230    -0.02900
H534        H  0.76059569  0.18560993  0.40965719     0.09200
H535        H  0.76579595  0.35962670  0.41011455     0.07300
Br536      Br  0.66613457  0.33744095  0.40659062    -0.03300
C537        C  0.98177628  0.70711855  0.13929901    -0.10000
C538        C  0.95062878  0.74523569  0.14274287     0.06200
C539        C  0.90204271  0.73589849  0.14234834    -0.03700
C540        C  0.88539712  0.69049596  0.13519221    -0.08200
C541        C  0.91640879  0.65301624  0.12896605     0.05300
C542        C  0.96508787  0.66122068  0.13277657    -0.03200
Br543      Br  0.01037070  0.61241691  0.12504353    -0.02900
H544        H  0.01921547  0.71367576  0.13845967     0.09200
H545        H  0.84787909  0.68476788  0.13341529     0.07300
Br546      Br  0.85710396  0.78554620  0.14825915    -0.03300
C547        C  0.73347952  0.62626415  0.14127238    -0.10000
C548        C  0.74058560  0.57831127  0.14763164     0.06200
C549        C  0.70097019  0.54966888  0.15296161    -0.03700
C550        C  0.65546047  0.56801471  0.14838841    -0.08200
C551        C  0.64905679  0.61436218  0.13703540     0.05300
C552        C  0.68863607  0.64399354  0.13481731    -0.03200
Br553      Br  0.68437831  0.70800898  0.11997299    -0.02900
H554        H  0.76349349  0.64864165  0.13640781     0.09200
H555        H  0.62542621  0.54496669  0.15085819     0.07300
Br556      Br  0.70810363  0.48392411  0.16163474    -0.03300
C557        C  0.72662742  0.31328045  0.10885519    -0.10000
C558        C  0.77561540  0.31297135  0.11189461     0.06200
C559        C  0.79999407  0.26996157  0.10775902    -0.03700
C560        C  0.77505917  0.22811238  0.10359467    -0.08200
C561        C  0.72597658  0.22801844  0.10317659     0.05300
C562        C  0.70170630  0.27137204  0.10441902    -0.03200
Br563      Br  0.63484054  0.27605311  0.09920266    -0.02900
H564        H  0.70754060  0.34613972  0.11058244     0.09200
H565        H  0.79420719  0.19527109  0.10197475     0.07300
Br566      Br  0.86723881  0.26546829  0.10620097    -0.03300
C567        C  0.95130527  0.48365772  0.28481404    -0.10000
C568        C  0.97068936  0.43901692  0.29126597     0.06200
C569        C  0.97935349  0.40868157  0.26337466    -0.03700
C570        C  0.96644452  0.42224009  0.23041955    -0.08200
C571        C  0.94409462  0.46561194  0.22407391     0.05300
C572        C  0.93818981  0.49723503  0.25174988    -0.03200
Br573      Br  0.91184671  0.55889295  0.24672749    -0.02900
H574        H  0.94482406  0.50773180  0.30589019     0.09200
H575        H  0.97188437  0.39716420  0.20982416     0.07300
Br576      Br  0.00329328  0.34602126  0.26861422    -0.03300
C577        C  0.91580589  0.29902472  0.00751703    -0.10000
C578        C  0.96059194  0.28042792  0.01404648     0.06200
C579        C  0.98755526  0.30077730  0.04061689    -0.03700
C580        C  0.96896382  0.33793740  0.06031547    -0.08200
C581        C  0.92355004  0.35582767  0.05423959     0.05300
C582        C  0.89709436  0.33578323  0.02704048    -0.03200
Br583      Br  0.83341770  0.35269880  0.01615703    -0.02900
H584        H  0.89453065  0.28445847  0.98702169     0.09200
H585        H  0.98969499  0.35187787  0.08130700     0.07300
Br586      Br  0.04820469  0.27722967  0.05312908    -0.03300
C587        C  0.81799422  0.08098145  0.02165673    -0.10000
C588        C  0.78158950  0.05298561  0.00867311     0.06200
C589        C  0.78546364  0.03516960  0.97511177    -0.03700
C590        C  0.82328988  0.04889421  0.95425489    -0.08200
C591        C  0.85868135  0.07953924  0.96652586     0.05300
C592        C  0.85663634  0.09333601  0.00153981    -0.03200
Br593      Br  0.90482644  0.12891788  0.02454743    -0.02900
H594        H  0.81639346  0.09335811  0.04790954     0.09200
H595        H  0.82356629  0.03737412  0.92781126     0.07300
Br596      Br  0.73806457  0.99498001  0.95598570    -0.03300
C597        C  0.94277754  0.03763308  0.74870552    -0.10000
C598        C  0.94212416  0.07431505  0.72492257     0.06200
C599        C  0.95620372  0.11983079  0.73606505    -0.03700
C600        C  0.97067994  0.12747822  0.76986045    -0.08200
C601        C  0.96986771  0.09128043  0.79382618     0.05300
C602        C  0.95613304  0.04581032  0.78287127    -0.03200
Br603      Br  0.95548525  0.99350377  0.81342000    -0.02900
H604        H  0.93236994  0.00254862  0.74082121     0.09200
H605        H  0.97962177  0.16286749  0.77803339     0.07300
Br606      Br  0.95114680  0.17496260  0.70819823    -0.03300
C607        C  0.97602422  0.20847574  0.56333618    -0.10000
C608        C  0.94468990  0.17393708  0.55076696     0.06200
C609        C  0.92984796  0.17695292  0.51624773    -0.03700
C610        C  0.94258025  0.21579401  0.49666988    -0.08200
C611        C  0.97111549  0.25152769  0.51013889     0.05300
C612        C  0.98934844  0.24685953  0.54331866    -0.03200
Br613      Br  0.02876058  0.29425795  0.56348355    -0.02900
H614        H  0.98797757  0.20745032  0.58960029     0.09200
H615        H  0.93005810  0.21816216  0.47059272     0.07300
Br616      Br  0.89214719  0.12987661  0.49372463    -0.03300
C617        C  0.70834170  0.09375281  0.51875261    -0.10000
C618        C  0.74588783  0.06766074  0.50547305     0.06200
C619        C  0.74372660  0.05200112  0.47131412    -0.03700
C620        C  0.70583172  0.06539761  0.45049710    -0.08200
C621        C  0.66928711  0.09410580  0.46323441     0.05300
C622        C  0.67019476  0.10657238  0.49844423    -0.03200
Br623      Br  0.62156727  0.14160203  0.52133059    -0.02900
H624        H  0.70867708  0.10432514  0.54542946     0.09200
H625        H  0.70652639  0.05550243  0.42372010     0.07300
Br626      Br  0.79359464  0.01617793  0.45116178    -0.03300
C627        C  0.66277179  0.43516904  0.99478830    -0.10000
C628        C  0.67068906  0.43979185  0.95957418     0.06200
C629        C  0.71141907  0.46462508  0.94888545    -0.03700
C630        C  0.74379411  0.48156010  0.97316323    -0.08200
C631        C  0.73718437  0.47352817  0.00800982     0.05300
C632        C  0.69545037  0.45146588  0.01879975    -0.03200
Br633      Br  0.68134313  0.44208855  0.06623153    -0.02900
H634        H  0.63185121  0.41694173  0.00379725     0.09200
H635        H  0.77562758  0.49863223  0.96464766     0.07300
Br636      Br  0.72861080  0.47271647  0.90184730    -0.03300
C637        C  0.57149328  0.19893266  0.99163511    -0.10000
C638        C  0.54831433  0.23864221  0.00466072     0.06200
C639        C  0.53395786  0.23902426  0.03899584    -0.03700
C640        C  0.54667462  0.20187826  0.06047825    -0.08200
C641        C  0.57378613  0.16376106  0.04828923     0.05300
C642        C  0.58359479  0.16138212  0.01284363    -0.03200
Br643      Br  0.61355135  0.10819395  0.99159186    -0.07700
H644        H  0.58090996  0.19746013  0.96483616     0.09200
H645        H  0.53832380  0.20481033  0.08739592     0.07300
Br646      Br  0.50098432  0.29163877  0.05833821    -0.03300
C647        C  0.76058378  0.30442854  0.91054057    -0.10000
C648        C  0.71898367  0.27806132  0.90967738     0.06200
C649        C  0.72132542  0.22870659  0.91079571    -0.03700
C650        C  0.76514938  0.20672986  0.91154977    -0.08200
C651        C  0.80682837  0.23320231  0.91105443     0.05300
C652        C  0.80420622  0.28256471  0.91091656    -0.03200
Br653      Br  0.85802437  0.32230336  0.90699244    -0.02900
H654        H  0.75918125  0.34247997  0.90968096     0.09200
H655        H  0.76670384  0.16867257  0.91158163     0.07300
Br656      Br  0.66655624  0.18955800  0.90794867    -0.03300
C657        C  0.72522922  0.28061218  0.60833552    -0.10000
C658        C  0.75120970  0.32225189  0.61242037     0.06200
C659        C  0.80047895  0.31957278  0.61460897    -0.03700
C660        C  0.82241859  0.27548040  0.61381962    -0.08200
C661        C  0.79615630  0.23355962  0.61080147     0.05300
C662        C  0.74692775  0.23669659  0.60758482    -0.03200
Br663      Br  0.70623602  0.18292178  0.60494137    -0.02900
H664        H  0.68731741  0.28214773  0.60631634     0.09200
H665        H  0.86028282  0.27399348  0.61616334     0.07300
Br666      Br  0.83920909  0.37419771  0.62134143    -0.03300
C667        C  0.59987364  0.49361979  0.74991061    -0.10000
C668        C  0.58437612  0.46751561  0.72151330     0.06200
C669        C  0.55504996  0.42777016  0.72757432    -0.03700
C670        C  0.54486771  0.41383177  0.76106623    -0.08200
C671        C  0.56299865  0.43818998  0.78936485     0.05300
C672        C  0.58949153  0.47968338  0.78336098    -0.03200
Br673      Br  0.61305104  0.51974251  0.81935016    -0.02900
H674        H  0.62147948  0.52447870  0.74620609     0.09200
H675        H  0.52436133  0.38226030  0.76493501     0.07300
Br676      Br  0.52835681  0.38861409  0.69216038    -0.03300
C677        C  0.82927893  0.46763288  0.51906123    -0.10000
C678        C  0.78746298  0.48604577  0.50558161     0.06200
C679        C  0.78377009  0.49222864  0.47010110    -0.03700
C680        C  0.82048385  0.47726400  0.44868538    -0.08200
C681        C  0.86115521  0.45575206  0.46206203     0.05300
C682        C  0.86596304  0.45286226  0.49788425    -0.03200
Br683      Br  0.92110970  0.42801496  0.51962029    -0.02900
H684        H  0.83300403  0.46361527  0.54643707     0.09200
H685        H  0.81553680  0.47932694  0.42129610     0.07300
Br686      Br  0.72739811  0.51546035  0.44951858    -0.03300
C687        C  0.60780457  0.31484093  0.50073595    -0.10000
C688        C  0.56270348  0.29690738  0.50670205     0.06200
C689        C  0.53532323  0.31751442  0.53280605    -0.03700
C690        C  0.55445117  0.35352755  0.55334873    -0.08200
C691        C  0.60072157  0.36979577  0.54844525     0.05300
C692        C  0.62708631  0.35033244  0.52110943    -0.03200
Br693      Br  0.69151967  0.36560932  0.51147531    -0.02900
H694        H  0.62919388  0.30002976  0.48047433     0.09200
H695        H  0.53361304  0.36750947  0.57420597     0.07300
Br696      Br  0.47358218  0.29538047  0.54370853    -0.03300
C697        C  0.15816145  0.05844689  0.89348048    -0.10000
C698        C  0.15274770  0.10676356  0.90016628     0.06200
C699        C  0.19251712  0.13609614  0.89818639    -0.03700
C700        C  0.23683766  0.11685465  0.89187915    -0.08200
C701        C  0.24323180  0.06810864  0.88938451     0.05300
C702        C  0.20315372  0.03895442  0.88884919    -0.03200
Br703      Br  0.20923945  0.97194910  0.88616229    -0.02900
H704        H  0.12789348  0.03545227  0.89436149     0.09200
H705        H  0.26723719  0.13968992  0.89343532     0.07300
Br706      Br  0.18918513  0.20241329  0.90677143    -0.03300
C707        C  0.48140550  0.20429451  0.88524653    -0.10000
C708        C  0.44898718  0.24084278  0.88035596     0.06200
C709        C  0.40072867  0.22989354  0.88092880    -0.03700
C710        C  0.38566266  0.18500198  0.89043437    -0.08200
C711        C  0.41800637  0.14966264  0.89884252     0.05300
C712        C  0.46638850  0.15892684  0.89423694    -0.03200
Br713      Br  0.51389021  0.11323879  0.90422012    -0.02900
H714        H  0.51861932  0.21217154  0.88568328     0.09200
H715        H  0.34836929  0.17820945  0.89241528     0.07300
Br716      Br  0.35410279  0.27692558  0.87203600    -0.03300
C717        C  0.20620108  0.96098418  0.01463870    -0.10000
C718        C  0.24862839  0.97838780  0.02792465     0.06200
C719        C  0.25222292  0.98664323  0.06332861    -0.03700
C720        C  0.21519417  0.97309872  0.08492518    -0.08200
C721        C  0.17406042  0.95176312  0.07171019     0.05300
C722        C  0.16906547  0.94833956  0.03584155    -0.03200
Br723      Br  0.11268164  0.92681756  0.01363758    -0.02900
H724        H  0.20199151  0.95680284  0.98724742     0.09200
H725        H  0.21996856  0.97659626  0.11228448     0.07300
Br726      Br  0.30810879  0.01231342  0.08347413    -0.03300
C727        C  0.46314627  0.82142559  0.96374756    -0.10000
C728        C  0.42738049  0.85205823  0.97546839     0.06200
C729        C  0.40831773  0.84405937  0.00840312    -0.03700
C730        C  0.42411256  0.80629023  0.02775604    -0.08200
C731        C  0.45888158  0.77558270  0.01569983     0.05300
C732        C  0.47875099  0.78346712  0.98345260    -0.03200
Br733      Br  0.52350382  0.74071808  0.96389483    -0.02900
H734        H  0.47785552  0.82564482  0.93847560     0.09200
H735        H  0.40878989  0.80074529  0.05272430     0.07300
Br736      Br  0.35940675  0.88095125  0.02929085    -0.03300
C737        C  0.67063981  0.93358612  0.65322902    -0.10000
C738        C  0.63990068  0.95285277  0.62883698     0.06200
C739        C  0.65342296  0.99404942  0.61190740    -0.03700
C740        C  0.69874677  0.01201767  0.61664027    -0.08200
C741        C  0.73181634  0.98883679  0.63734948     0.05300
C742        C  0.71647261  0.95109761  0.65737605    -0.03200
Br743      Br  0.75856326  0.91917520  0.68747140    -0.02900
H744        H  0.66030654  0.90253640  0.66715446     0.09200
H745        H  0.70992748  0.04120074  0.60099691     0.07300
Br746      Br  0.61223983  0.02569168  0.58084807    -0.03300
C747        C  0.62849448  0.75046190  0.63489327    -0.10000
C748        C  0.58049528  0.75813332  0.64088619     0.06200
C749        C  0.55129993  0.71844564  0.64499227    -0.03700
C750        C  0.56944113  0.67268925  0.63957442    -0.08200
C751        C  0.61662256  0.66567574  0.62990642     0.05300
C752        C  0.64656168  0.70533645  0.62936526    -0.03200
Br753      Br  0.71269791  0.70095218  0.62034918    -0.02900
H754        H  0.65177565  0.78031270  0.63207004     0.09200
H755        H  0.54595393  0.64284145  0.64096539     0.07300
Br756      Br  0.48579524  0.72516847  0.65481616    -0.03300
C757        C  0.45468756  0.99073153  0.74888502    -0.10000
C758        C  0.47439737  0.94686180  0.74012279     0.06200
C759        C  0.48675271  0.91596347  0.76664501    -0.03700
C760        C  0.47500910  0.92725037  0.80037400    -0.08200
C761        C  0.45083217  0.96896742  0.80881698     0.05300
C762        C  0.44350475  0.00230468  0.78283305    -0.03200
Br763      Br  0.41812448  0.06380428  0.79150840    -0.02900
H764        H  0.44643746  0.01568354  0.72902096     0.09200
H765        H  0.48248262  0.90149615  0.81984177     0.07300
Br766      Br  0.51456296  0.85526911  0.75883092    -0.03300
C767        C  0.32220652  0.98913979  0.57990776    -0.10000
C768        C  0.36087596  0.96385964  0.56682740     0.06200
C769        C  0.36378126  0.95715266  0.53098958    -0.03700
C770        C  0.32647584  0.97080570  0.50985011    -0.08200
C771        C  0.28633701  0.99248949  0.52339568     0.05300
C772        C  0.28531979  0.00359168  0.55848168    -0.03200
Br773      Br  0.23257899  0.03517052  0.57847290    -0.02900
H774        H  0.31895332  0.99492509  0.60718934     0.09200
H775        H  0.32834678  0.96344996  0.48268341     0.07300
Br776      Br  0.41759153  0.92932055  0.50926559    -0.03300
C777        C  0.49355022  0.74846455  0.49142900    -0.10000
C778        C  0.47081376  0.75430932  0.52294601     0.06200
C779        C  0.43956806  0.71911067  0.53375188    -0.03700
C780        C  0.42846801  0.68149371  0.51213445    -0.08200
C781        C  0.44708814  0.67789880  0.47894586     0.05300
C782        C  0.48198515  0.71090381  0.46933740    -0.03200
Br783      Br  0.51456569  0.70830046  0.42644490    -0.02900
H784        H  0.51903179  0.77431378  0.48332275     0.09200
H785        H  0.40271446  0.65635671  0.52091041     0.07300
Br786      Br  0.41077807  0.71958373  0.57788308    -0.03300
C787        C  0.11400113  0.29903764  0.87494160    -0.10000
C788        C  0.06772682  0.28974282  0.88511271     0.06200
C789        C  0.04052542  0.32741774  0.89787834    -0.03700
C790        C  0.06015445  0.37223756  0.90232552    -0.08200
C791        C  0.10748222  0.38027363  0.89500137     0.05300
C792        C  0.13419275  0.34357466  0.88033920    -0.03200
Br793      Br  0.19992591  0.35080173  0.87159245    -0.02900
H794        H  0.13597204  0.27043526  0.86609026     0.09200
H795        H  0.03934840  0.39993854  0.91393680     0.07300
Br796      Br  0.97899580  0.31712325  0.91554727    -0.03300
C797        C  0.32587926  0.49006303  0.91663786    -0.10000
C798        C  0.29715058  0.47592464  0.88920989     0.06200
C799        C  0.31666617  0.44747187  0.86335319    -0.03700
C800        C  0.36272772  0.43013181  0.86706991    -0.08200
C801        C  0.38917615  0.43989134  0.89685546     0.05300
C802        C  0.37086437  0.47186107  0.92107250    -0.03200
Br803      Br  0.40362710  0.48912853  0.96233791    -0.02900
H804        H  0.31120909  0.51150993  0.93689110     0.09200
H805        H  0.37629255  0.40586548  0.84802702     0.07300
Br806      Br  0.28031837  0.42805426  0.82456372    -0.03300
C807        C  0.20931031  0.76524897  0.93004973    -0.10000
C808        C  0.23348137  0.72472205  0.91928492     0.06200
C809        C  0.27960469  0.72868572  0.90735794    -0.03700
C810        C  0.30085209  0.77253938  0.90627267    -0.08200
C811        C  0.27677027  0.81379590  0.91605558     0.05300
C812        C  0.23051905  0.80966041  0.92878748    -0.03200
Br813      Br  0.19333757  0.86233161  0.94342853    -0.02900
H814        H  0.17342486  0.76238739  0.93891519     0.09200
H815        H  0.33651110  0.77411248  0.89682851     0.07300
Br816      Br  0.31352453  0.67654931  0.88815131    -0.03300
C817        C  0.12811635  0.69857831  0.99390739    -0.10000
C818        C  0.09409708  0.66935376  0.97880693     0.06200
C819        C  0.04646693  0.67905532  0.98502278    -0.03700
C820        C  0.03390471  0.71782853  0.00575432    -0.08200
C821        C  0.06820623  0.74828505  0.01996080     0.05300
C822        C  0.11612443  0.73770066  0.01365689    -0.03200
Br823      Br  0.16870968  0.77446975  0.02956186    -0.02900
H824        H  0.16501395  0.69228408  0.98894596     0.09200
H825        H  0.99703587  0.72428982  0.01050452     0.07300
Br826      Br  0.99783936  0.63936170  0.96704681    -0.03300
C827        C  0.28670143  0.53429692  0.04929488    -0.10000
C828        C  0.28864199  0.55184699  0.01598145     0.06200
C829        C  0.32673578  0.58045288  0.00675234    -0.03700
C830        C  0.36092743  0.59246424  0.03077912    -0.08200
C831        C  0.35719330  0.57885337  0.06514527     0.05300
C832        C  0.31996679  0.54803345  0.07407091    -0.03200
Br833      Br  0.30899682  0.52658120  0.11975925    -0.02900
H834        H  0.25759531  0.51208288  0.05662710     0.09200
H835        H  0.38902254  0.61550279  0.02276402     0.07300
Br836      Br  0.33333674  0.60609180  0.96196456    -0.03300
C837        C  0.89796075  0.79853263  0.63553478    -0.10000
C838        C  0.94629961  0.79081670  0.63992754     0.06200
C839        C  0.97643508  0.83023099  0.64108036    -0.03700
C840        C  0.95832853  0.87570315  0.63579960    -0.08200
C841        C  0.91060358  0.88251665  0.62796768     0.05300
C842        C  0.88017865  0.84338537  0.62897206    -0.03200
Br843      Br  0.81419797  0.84829929  0.61958485    -0.02900
H844        H  0.87432961  0.76871522  0.63396645     0.09200
H845        H  0.98220892  0.90531071  0.63522854     0.07300
Br846      Br  0.04322068  0.82314305  0.64438669    -0.03300
C847        C  0.85726188  0.61697275  0.65484053    -0.10000
C848        C  0.88782503  0.59622864  0.63080372     0.06200
C849        C  0.87440881  0.55408161  0.61470566    -0.03700
C850        C  0.82925296  0.53620378  0.61976664    -0.08200
C851        C  0.79605146  0.56086969  0.63969244     0.05300
C852        C  0.81144529  0.59959583  0.65926416    -0.03200
Br853      Br  0.76940699  0.63262902  0.68907780    -0.02900
H854        H  0.86767082  0.64887770  0.66814857     0.09200
H855        H  0.81811800  0.50611528  0.60459883     0.07300
Br856      Br  0.91560469  0.52184400  0.58379413    -0.03300
C857        C  0.28852798  0.78554020  0.59187633    -0.10000
C858        C  0.30245303  0.80892830  0.62205733     0.06200
C859        C  0.27149771  0.81014683  0.65024422    -0.03700
C860        C  0.22800394  0.78832192  0.64784763    -0.08200
C861        C  0.21439511  0.76444200  0.61808414     0.05300
C862        C  0.24471953  0.76325049  0.58972531    -0.03200
Br863      Br  0.22951251  0.72869610  0.54881239    -0.02900
H864        H  0.31179827  0.78438938  0.57002883     0.09200
H865        H  0.20529151  0.78821185  0.67004256     0.07300
Br866      Br  0.28745689  0.83683223  0.69412208    -0.03300
C867        C  0.04733622  0.62577169  0.76183330    -0.10000
C868        C  0.06266366  0.59869810  0.73405377     0.06200
C869        C  0.08708222  0.55629261  0.74061332    -0.03700
C870        C  0.09867341  0.54398675  0.77420757    -0.08200
C871        C  0.08617823  0.57280304  0.80203627     0.05300
C872        C  0.05882237  0.61365399  0.79541999    -0.03200
Br873      Br  0.03834644  0.65770488  0.82987270    -0.02900
H874        H  0.02868100  0.65832023  0.75734880     0.09200
H875        H  0.11849107  0.51208336  0.77845646     0.07300
Br876      Br  0.10554236  0.51315156  0.70499385    -0.03300
C877        C  0.26440370  0.58001576  0.55679627    -0.10000
C878        C  0.25099557  0.55923995  0.52580280     0.06200
C879        C  0.20272957  0.55476912  0.51815924    -0.03700
C880        C  0.16902917  0.57394447  0.54048101    -0.08200
C881        C  0.18266282  0.59585701  0.57123005     0.05300
C882        C  0.23103500  0.59751901  0.57964551    -0.03200
Br883      Br  0.25505702  0.62756880  0.62023444    -0.02900
H884        H  0.30134904  0.58392001  0.56284510     0.09200
H885        H  0.13222813  0.57243556  0.53355755     0.07300
Br886      Br  0.18118018  0.52571458  0.47670112    -0.03300
C887        C  0.08370708  0.82240979  0.53309134    -0.10000
C888        C  0.05422200  0.78853305  0.51811893     0.06200
C889        C  0.03615697  0.79650862  0.48526007    -0.03700
C890        C  0.05179227  0.83533508  0.46659221    -0.08200
C891        C  0.08488256  0.86737366  0.48036994     0.05300
C892        C  0.09823710  0.86204119  0.51502062    -0.03200
Br893      Br  0.13631500  0.90668218  0.53970093    -0.02900
H894        H  0.09592665  0.81774282  0.55908454     0.09200
H895        H  0.04001479  0.83866869  0.44040472     0.07300
Br896      Br  0.99346355  0.75331310  0.46372206    -0.03300
loop_ 
_geom_bond_atom_site_label_1 
_geom_bond_atom_site_label_2 
_geom_bond_distance 
_geom_bond_site_symmetry_2 
_ccdc_geom_bond_type 
O1           Ni7   1.915       .  S
O1           C22   1.269       .  A
O2          Ni25   1.896       .  S
O2           C11   1.267       .  A
O3           Ni7   1.870       .  S
O3          Ni25   1.874       .  S
O3          Ni19   1.890       .  S
O3           H26   0.966       .  S
C4           O21   1.270       .  A
C4           O13   1.279       .  A
C4          C848   1.480       .  S
O5          Ni24   1.948   1_455  S
O5           C11   1.275       .  A
O6          Ni24   1.895       .  S
O6            C8   1.269       .  A
Ni7          O10   1.913       .  S
Ni7          O12   1.900       .  S
C8           O18   1.285       .  A
C8          C838   1.484       .  S
O9          Ni25   1.926       .  S
O9           C15   1.283       .  A
O10          C15   1.281       .  A
C11         C888   1.478       .  S
O12          C14   1.266       .  A
O13         Ni24   1.937       .  S
C14          O20   1.274       .  A
C14         C881   1.483       .  S
C15         C861   1.463       .  S
H16          O17   0.966       .  S
O17         Ni25   1.929       .  S
O17         Ni19   1.918       .  S
O17         Ni24   1.904   1_455  S
O18         Ni19   1.961   1_655  S
Ni19         O23   1.929       .  S
Ni19         O21   1.918   1_455  S
O20         Ni25   1.939       .  S
C22          O23   1.281       .  A
C22         C868   1.487       .  S
O27         Ni33   1.917       .  S
O27          C48   1.272       .  A
O28         Ni51   1.898       .  S
O28          C37   1.266       .  A
O29         Ni33   1.879       .  S
O29         Ni51   1.860       .  S
O29         Ni45   1.888       .  S
O29          H52   0.967       .  S
C30          O47   1.269       .  A
C30          O39   1.272       .  A
C30         C791   1.480       .  S
O31         Ni50   1.942       .  S
O31          C37   1.274       .  A
O32         Ni50   1.898       .  S
O32          C34   1.272       .  A
Ni33         O36   1.932       .  S
Ni33         O38   1.919       .  S
C34          O44   1.287       .  A
C34         C798   1.479       .  S
O35         Ni51   1.919       .  S
O35          C41   1.286       .  A
O36          C41   1.284       .  A
C37         C828   1.479   1_556  S
O38          C40   1.268       .  A
O39         Ni50   1.928       .  S
C40          O46   1.267       .  A
C40         C818   1.485       .  S
C41         C808   1.465       .  S
H42          O43   0.966       .  S
O43         Ni51   1.942       .  S
O43         Ni45   1.931       .  S
O43         Ni50   1.911       .  S
O44         Ni45   1.961       .  S
Ni45         O49   1.929       .  S
Ni45         O47   1.924       .  S
O46         Ni51   1.915       .  S
C48          O49   1.283       .  A
C48         C871   1.496       .  S
O53         Ni59   1.936       .  S
O53          C74   1.279       .  A
O54         Ni77   1.904       .  S
O54          C63   1.271       .  A
O55         Ni59   1.883       .  S
O55         Ni77   1.871       .  S
O55         Ni71   1.888       .  S
O55          H78   0.967       .  S
C56          O73   1.270       .  A
C56          O65   1.278       .  A
C56         C738   1.484       .  S
O57         Ni76   1.945       .  S
O57          C63   1.277       .  A
O58         Ni76   1.905       .  S
O58          C60   1.271       .  A
Ni59         O62   1.927       .  S
Ni59         O64   1.926       .  S
C60          O70   1.286       .  A
C60         C748   1.493       .  S
O61         Ni77   1.918       .  S
O61          C67   1.284       .  A
O62          C67   1.281       .  A
C63         C778   1.482       .  S
O64          C66   1.273       .  A
O65         Ni76   1.940       .  S
C66          O72   1.270       .  A
C66         C768   1.495       .  S
C67         C858   1.474       .  S
H68          O69   0.967       .  S
O69         Ni77   1.928       .  S
O69         Ni71   1.906       .  S
O69         Ni76   1.893       .  S
O70         Ni71   1.964       .  S
Ni71         O75   1.906       .  S
Ni71         O73   1.922       .  S
O72         Ni77   1.928       .  S
C74          O75   1.276       .  A
C74         C758   1.486       .  S
O79         Ni85   1.921       .  S
O79         C100   1.271       .  A
O80        Ni103   1.895       .  S
O80          C89   1.267   1_556  A
O81         Ni85   1.884       .  S
O81        Ni103   1.870       .  S
O81         Ni97   1.879   1_565  S
O81         H104   0.966       .  S
C82          O99   1.260       .  A
C82          O91   1.273       .  A
C82         C711   1.492       .  S
O83        Ni102   1.939   1_554  S
O83          C89   1.274   1_545  A
O84        Ni102   1.876       .  S
O84          C86   1.268       .  A
Ni85         O88   1.915       .  S
Ni85         O90   1.908       .  S
C86          O96   1.293       .  A
C86         C701   1.471       .  S
O87        Ni103   1.923       .  S
O87          C93   1.281       .  A
O88          C93   1.281       .  A
C89         C718   1.482       .  S
O90          C92   1.269       .  A
O91        Ni102   1.954       .  S
C92          O98   1.271       .  A
C92         C728   1.497       .  S
C93         C811   1.485       .  S
H94          O95   0.967   1_565  S
O95        Ni103   1.952   1_545  S
O95         Ni97   1.925       .  S
O95        Ni102   1.917       .  S
O96         Ni97   1.988       .  S
Ni97        O101   1.918       .  S
Ni97         O99   1.904       .  S
O98        Ni103   1.929       .  S
C100        O101   1.273   1_565  A
C100        C761   1.492       .  S
O105       Ni111   1.906       .  S
O105        C126   1.265       .  A
O106       Ni129   1.889       .  S
O106        C115   1.262       .  A
O107       Ni111   1.880       .  S
O107       Ni129   1.856       .  S
O107       Ni123   1.891       .  S
O107        H130   0.966       .  S
C108        O125   1.268       .  A
C108        O117   1.268       .  A
C108        C751   1.500       .  S
O109       Ni128   1.940       .  S
O109        C115   1.272       .  A
O110       Ni128   1.873       .  S
O110        C112   1.272       .  A
Ni111       O114   1.925       .  S
Ni111       O116   1.906       .  S
C112        O122   1.295       .  A
C112        C851   1.477       .  S
O113       Ni129   1.925       .  S
O113        C119   1.282       .  A
O114        C119   1.282       .  A
C115        C678   1.481       .  S
O116        C118   1.267       .  A
O117       Ni128   1.926       .  S
C118        O124   1.270       .  A
C118        C691   1.490       .  S
C119        C658   1.478       .  S
H120        O121   0.967       .  S
O121       Ni129   1.964       .  S
O121       Ni123   1.946       .  S
O121       Ni128   1.923       .  S
O122       Ni123   1.982       .  S
Ni123       O127   1.944       .  S
Ni123       O125   1.930       .  S
O124       Ni129   1.927       .  S
C126        O127   1.284       .  A
C126        C668   1.501       .  S
O131       Ni137   1.917       .  S
O131        C152   1.269       .  A
O132       Ni155   1.907       .  S
O132        C141   1.269       .  A
O133       Ni137   1.878       .  S
O133       Ni155   1.881       .  S
O133       Ni149   1.894       .  S
O133        H156   0.966       .  S
C134        O151   1.275       .  A
C134        O143   1.276       .  A
C134        C801   1.485       .  S
O135       Ni154   1.942       .  S
O135        C141   1.274       .  A
O136       Ni154   1.899       .  S
O136        C138   1.268       .  A
Ni137       O140   1.923       .  S
Ni137       O142   1.903       .  S
C138        O148   1.284       .  A
C138        C708   1.481       .  S
O139       Ni155   1.912       .  S
O139        C145   1.280       .  A
O140        C145   1.282       .  A
C141        C638   1.478   1_556  S
O142        C144   1.264       .  A
O143       Ni154   1.920       .  S
C144        O150   1.275       .  A
C144        C628   1.493       .  S
C145        C648   1.467       .  S
H146        O147   0.966       .  S
O147       Ni155   1.922       .  S
O147       Ni149   1.919       .  S
O147       Ni154   1.899       .  S
O148       Ni149   1.960       .  S
Ni149       O153   1.939       .  S
Ni149       O151   1.933       .  S
O150       Ni155   1.938       .  S
C152        O153   1.284       .  A
C152        C671   1.496       .  S
O157       Ni163   1.917       .  S
O157        C178   1.270       .  A
O158       Ni181   1.897       .  S
O158        C167   1.265       .  A
O159       Ni163   1.888       .  S
O159       Ni181   1.863       .  S
O159       Ni175   1.891       .  S
O159        H182   0.968       .  S
C160        O177   1.266       .  A
C160        O169   1.269       .  A
C160        C841   1.490       .  S
O161       Ni180   1.931   1_545  S
O161        C167   1.270       .  A
O162       Ni180   1.877       .  S
O162        C164   1.269       .  A
Ni163       O166   1.932       .  S
Ni163       O168   1.912       .  S
C164        O174   1.291   1_565  A
C164        C741   1.477       .  S
O165       Ni181   1.920       .  S
O165        C171   1.283       .  A
O166        C171   1.283       .  A
C167        C618   1.480       .  S
O168        C170   1.268       .  A
O169       Ni180   1.926       .  S
C170        O176   1.268       .  A
C170        C608   1.493       .  S
C171        C661   1.484       .  S
H172        O173   0.962       .  S
O173       Ni181   1.959       .  S
O173       Ni175   1.946       .  S
O173       Ni180   1.930   1_545  S
O174       Ni175   1.975       .  S
Ni175       O179   1.933       .  S
Ni175       O177   1.920   1_545  S
O176       Ni181   1.924       .  S
C178        O179   1.279       .  A
C178        C598   1.492       .  S
O183       Ni189   1.927       .  S
O183        C204   1.274       .  A
O184       Ni207   1.887       .  S
O184        C193   1.262       .  A
O185       Ni189   1.899       .  S
O185       Ni207   1.869       .  S
O185       Ni201   1.894   1_655  S
O185        H208   0.967       .  S
C186        O203   1.270       .  A
C186        O195   1.277       .  A
C186        C698   1.485       .  S
O187       Ni206   1.952       .  S
O187        C193   1.274   1_455  A
O188       Ni206   1.884       .  S
O188        C190   1.266       .  A
Ni189       O192   1.925       .  S
Ni189       O194   1.929       .  S
C190        O200   1.287       .  A
C190        C788   1.478       .  S
O191       Ni207   1.915       .  S
O191        C197   1.281       .  A
O192        C197   1.281       .  A
C193        C578   1.492   1_556  S
O194        C196   1.273       .  A
O195       Ni206   1.937       .  S
C196        O202   1.267       .  A
C196        C591   1.507       .  S
C197        C651   1.469       .  S
H198        O199   0.967       .  S
O199       Ni207   1.936   1_455  S
O199       Ni201   1.931       .  S
O199       Ni206   1.924       .  S
O200       Ni201   1.969       .  S
Ni201       O205   1.924       .  S
Ni201       O203   1.918       .  S
O202       Ni207   1.920       .  S
C204        O205   1.278   1_655  A
C204        C601   1.486       .  S
O209       Ni215   1.941       .  S
O209        C230   1.272       .  A
O210       Ni233   1.931       .  S
O210        C219   1.276       .  A
O211       Ni215   1.924       .  S
O211       Ni233   1.939       .  S
O211       Ni227   1.953       .  S
O211        H234   0.966       .  S
C212        O229   1.279       .  A
C212        O221   1.279       .  A
C212        C558   1.474       .  S
O213       Ni232   1.914       .  S
O213        C219   1.268       .  A
O214       Ni232   1.908       .  S
O214        C216   1.267       .  A
Ni215       O218   1.942       .  S
Ni215       O220   1.873       .  S
C216        O226   1.270       .  A
C216        C581   1.495       .  S
O217       Ni233   1.914       .  S
O217        C223   1.265       .  A
O218        C223   1.273       .  A
C219        C571   1.495       .  S
O220        C222   1.268       .  A
O221       Ni232   1.925       .  S
C222        O228   1.292       .  A
C222        C548   1.474       .  S
C223        C541   1.493       .  S
H224        O225   0.967       .  S
O225       Ni233   1.892       .  S
O225       Ni227   1.867       .  S
O225       Ni232   1.897       .  S
O226       Ni227   1.933       .  S
Ni227       O231   1.887       .  S
Ni227       O229   1.914       .  S
O228       Ni233   1.983       .  S
C230        O231   1.261       .  A
C230        C631   1.479       .  S
O235       Ni241   1.934       .  S
O235        C256   1.271   1_455  A
O236       Ni259   1.921       .  S
O236        C245   1.279   1_455  A
O237       Ni241   1.914       .  S
O237       Ni259   1.925       .  S
O237       Ni253   1.936   1_455  S
O237        H260   0.967   1_455  S
C238        O255   1.282       .  A
C238        O247   1.283       .  A
C238        C531   1.473       .  S
O239       Ni258   1.923       .  S
O239        C245   1.274       .  A
O240       Ni258   1.909       .  S
O240        C242   1.268       .  A
Ni241       O244   1.924       .  S
Ni241       O246   1.899       .  S
C242        O252   1.271       .  A
C242        C681   1.489       .  S
O243       Ni259   1.931       .  S
O243        C249   1.272       .  A
O244        C249   1.273       .  A
C245        C568   1.486       .  S
O246        C248   1.269       .  A
O247       Ni258   1.931       .  S
C248        O254   1.282       .  A
C248        C508   1.478       .  S
C249        C518   1.482       .  S
H250        O251   0.966       .  S
O251       Ni259   1.893   1_655  S
O251       Ni253   1.870       .  S
O251       Ni258   1.882       .  S
O252       Ni253   1.927       .  S
Ni253       O257   1.901       .  S
Ni253       O255   1.914       .  S
O254       Ni259   1.957       .  S
C256        O257   1.267       .  A
C256        C611   1.475       .  S
O261       Ni267   1.950   1_545  S
O261        C282   1.277       .  A
O262       Ni285   1.924       .  S
O262        C271   1.279       .  A
O263       Ni267   1.909   1_545  S
O263       Ni285   1.925       .  S
O263       Ni279   1.941       .  S
O263        H286   0.966       .  S
C264        O281   1.288       .  A
C264        O273   1.282       .  A
C264        C561   1.473       .  S
O265       Ni284   1.918       .  S
O265        C271   1.274       .  A
O266       Ni284   1.913       .  S
O266        C268   1.269       .  A
Ni267       O270   1.941       .  S
Ni267       O272   1.902       .  S
C268        O278   1.270       .  A
C268        C641   1.495       .  S
O269       Ni285   1.927   1_565  S
O269        C275   1.270       .  A
O270        C275   1.277       .  A
C271        C501   1.492       .  S
O272        C274   1.270       .  A
O273       Ni284   1.924       .  S
C274        O280   1.285   1_565  A
C274        C478   1.481       .  S
C275        C488   1.488       .  S
H276        O277   0.966       .  S
O277       Ni285   1.891       .  S
O277       Ni279   1.869       .  S
O277       Ni284   1.877       .  S
O278       Ni279   1.928       .  S
Ni279       O283   1.910       .  S
Ni279       O281   1.925       .  S
O280       Ni285   1.961       .  S
C282        O283   1.271       .  A
C282        C588   1.487       .  S
O287       Ni293   1.950       .  S
O287        C308   1.274       .  A
O288       Ni311   1.920       .  S
O288        C297   1.280       .  A
O289       Ni293   1.912       .  S
O289       Ni311   1.918       .  S
O289       Ni305   1.923       .  S
O289        H312   0.966       .  S
C290        O307   1.281       .  A
C290        O299   1.284       .  A
C290        C528   1.470       .  S
O291       Ni310   1.922       .  S
O291        C297   1.275       .  A
O292       Ni310   1.918       .  S
O292        C294   1.270       .  A
Ni293       O296   1.925       .  S
Ni293       O298   1.896       .  S
C294        O304   1.265       .  A
C294        C621   1.495       .  S
O295       Ni311   1.929       .  S
O295        C301   1.274       .  A
O296        C301   1.276       .  A
C297        C498   1.486       .  S
O298        C300   1.267       .  A
O299       Ni310   1.931       .  S
C300        O306   1.279       .  A
C300        C471   1.469       .  S
C301        C458   1.476       .  S
H302        O303   0.967       .  S
O303       Ni311   1.894       .  S
O303       Ni305   1.865       .  S
O303       Ni310   1.879       .  S
O304       Ni305   1.913       .  S
Ni305       O309   1.885       .  S
Ni305       O307   1.912       .  S
O306       Ni311   1.949       .  S
C308        O309   1.262       .  A
C308        C688   1.485       .  S
O313       Ni319   1.940       .  S
O313        C334   1.271       .  A
O314       Ni337   1.932       .  S
O314        C323   1.281       .  A
O315       Ni319   1.921       .  S
O315       Ni337   1.937       .  S
O315       Ni331   1.940       .  S
O315        H338   0.967       .  S
C316        O333   1.280       .  A
C316        O325   1.282       .  A
C316        C438   1.459       .  S
O317       Ni336   1.908       .  S
O317        C323   1.266       .  A
O318       Ni336   1.910       .  S
O318        C320   1.263       .  A
Ni319       O322   1.929       .  S
Ni319       O324   1.880       .  S
C320        O330   1.268       .  A
C320        C831   1.496       .  S
O321       Ni337   1.918       .  S
O321        C327   1.268       .  A
O322        C327   1.274       .  A
C323        C451   1.492       .  S
O324        C326   1.267       .  A
O325       Ni336   1.926       .  S
C326        O332   1.290       .  A
C326        C491   1.479       .  S
C327        C551   1.486       .  S
H328        O329   0.966       .  S
O329       Ni337   1.892       .  S
O329       Ni331   1.861       .  S
O329       Ni336   1.891       .  S
O330       Ni331   1.916       .  S
Ni331       O335   1.885       .  S
Ni331       O333   1.910       .  S
O332       Ni337   1.977       .  S
C334        O335   1.260       .  A
C334        C731   1.478       .  S
O339       Ni345   1.951       .  S
O339        C360   1.274       .  A
O340       Ni363   1.914       .  S
O340        C349   1.278       .  A
O341       Ni345   1.902       .  S
O341       Ni363   1.911       .  S
O341       Ni357   1.912       .  S
O341        H364   0.966       .  S
C342        O359   1.278       .  A
C342        O351   1.282       .  A
C342        C428   1.461       .  S
O343       Ni362   1.924       .  S
O343        C349   1.271       .  A
O344       Ni362   1.907       .  S
O344        C346   1.265       .  A
Ni345       O348   1.932       .  S
Ni345       O350   1.897       .  S
C346        O356   1.272       .  A
C346        C781   1.496       .  S
O347       Ni363   1.915       .  S
O347        C353   1.271       .  A
O348        C353   1.278       .  A
C349        C448   1.486       .  S
O350        C352   1.269       .  A
O351       Ni362   1.924       .  S
C352        O358   1.280       .  A
C352        C521   1.481       .  S
C353        C468   1.475       .  S
H354        O355   0.966       .  S
O355       Ni363   1.887       .  S
O355       Ni357   1.876       .  S
O355       Ni362   1.882       .  S
O356       Ni357   1.925       .  S
Ni357       O361   1.897       .  S
Ni357       O359   1.904       .  S
O358       Ni363   1.952       .  S
C360        O361   1.265       .  A
C360        C878   1.478       .  S
O365       Ni371   1.955   1_455  S
O365        C386   1.277       .  A
O366       Ni389   1.928       .  S
O366        C375   1.280       .  A
O367       Ni371   1.903   1_455  S
O367       Ni389   1.916       .  S
O367       Ni383   1.919       .  S
O367        H390   0.967       .  S
C368        O385   1.282       .  A
C368        O377   1.281       .  A
C368        C441   1.467       .  S
O369       Ni388   1.912       .  S
O369        C375   1.270       .  A
O370       Ni388   1.914       .  S
O370        C372   1.268       .  A
Ni371       O374   1.936       .  S
Ni371       O376   1.894       .  S
C372        O382   1.269       .  A
C372        C721   1.494       .  S
O373       Ni389   1.926   1_655  S
O373        C379   1.274       .  A
O374        C379   1.280       .  A
C375        C418   1.489       .  S
O376        C378   1.268       .  A
O377       Ni388   1.920       .  S
C378        O384   1.285       .  A
C378        C538   1.482       .  S
C379        C481   1.489       .  S
H380        O381   0.966       .  S
O381       Ni389   1.898       .  S
O381       Ni383   1.867       .  S
O381       Ni388   1.887       .  S
O382       Ni383   1.924       .  S
Ni383       O387   1.895       .  S
Ni383       O385   1.911       .  S
O384       Ni389   1.966   1_655  S
C386        O387   1.263       .  A
C386        C821   1.499       .  S
O391       Ni397   1.951       .  S
O391        C412   1.275   1_545  A
O392       Ni415   1.926       .  S
O392        C401   1.278   1_545  A
O393       Ni397   1.907       .  S
O393       Ni415   1.924       .  S
O393       Ni409   1.925   1_545  S
O393        H416   0.967       .  S
C394        O411   1.279       .  A
C394        O403   1.282       .  A
C394        C431   1.467       .  S
O395       Ni414   1.921       .  S
O395        C401   1.272       .  A
O396       Ni414   1.904       .  S
O396        C398   1.266       .  A
Ni397       O400   1.934       .  S
Ni397       O402   1.898       .  S
C398        O408   1.272       .  A
C398        C891   1.496       .  S
O399       Ni415   1.925       .  S
O399        C405   1.272       .  A
O400        C405   1.278       .  A
C401        C421   1.497       .  S
O402        C404   1.270       .  A
O403       Ni414   1.925       .  S
C404        O410   1.279       .  A
C404        C461   1.473       .  S
C405        C511   1.483       .  S
H406        O407   0.967       .  S
O407       Ni415   1.888   1_565  S
O407       Ni409   1.880       .  S
O407       Ni414   1.877       .  S
O408       Ni409   1.936       .  S
Ni409       O413   1.904       .  S
Ni409       O411   1.909       .  S
O410       Ni415   1.944       .  S
C412        O413   1.267       .  A
C412        C771   1.483       .  S
C417        C418   1.411       .  A
C417        C422   1.403       .  A
C417        H424   1.083   1_565  S
C418        C419   1.408       .  A
C419        C420   1.400       .  A
C419       Br426   1.922       .  S
C420        C421   1.414       .  A
C420        H425   1.083       .  S
C421        C422   1.412       .  A
C422       Br423   1.921   1_565  S
C427        C428   1.403       .  A
C427        C432   1.392       .  A
C427        H434   1.084       .  S
C428        C429   1.405       .  A
C429        C430   1.391       .  A
C429       Br436   1.919       .  S
C430        C431   1.406       .  A
C430        H435   1.084       .  S
C431        C432   1.408       .  A
C432       Br433   1.916       .  S
C437        C438   1.398       .  A
C437        C442   1.393       .  A
C437        H444   1.084       .  S
C438        C439   1.407       .  A
C439        C440   1.393       .  A
C439       Br446   1.917       .  S
C440        C441   1.402       .  A
C440        H445   1.084       .  S
C441        C442   1.414       .  A
C442       Br443   1.921       .  S
C447        C448   1.398       .  A
C447        C452   1.397       .  A
C447        H454   1.084       .  S
C448        C449   1.418       .  A
C449        C450   1.402       .  A
C449       Br456   1.923       .  S
C450        C451   1.403       .  A
C450        H455   1.083       .  S
C451        C452   1.425       .  A
C452       Br453   1.926       .  S
C457        C458   1.403       .  A
C457        C462   1.406       .  A
C457        H464   1.083       .  S
C458        C459   1.409       .  A
C459        C460   1.395       .  A
C459       Br466   1.914       .  S
C460        C461   1.401       .  A
C460        H465   1.084       .  S
C461        C462   1.412       .  A
C462       Br463   1.915   1_545  S
C467        C468   1.408       .  A
C467        C472   1.403       .  A
C467        H474   1.084       .  S
C468        C469   1.405       .  A
C469        C470   1.396       .  A
C469       Br476   1.919       .  S
C470        C471   1.406       .  A
C470        H475   1.083       .  S
C471        C472   1.405       .  A
C472       Br473   1.915       .  S
C477        C478   1.406       .  A
C477        C482   1.398       .  A
C477        H484   1.083   1_565  S
C478        C479   1.407       .  A
C479        C480   1.410       .  A
C479       Br486   1.914       .  S
C480        C481   1.412       .  A
C480        H485   1.083       .  S
C481        C482   1.408       .  A
C482       Br483   1.920       .  S
C487        C488   1.403       .  A
C487        C492   1.408       .  A
C487        H494   1.083       .  S
C488        C489   1.410       .  A
C489        C490   1.404       .  A
C489       Br496   1.913       .  S
C490        C491   1.403       .  A
C490        H495   1.083       .  S
C491        C492   1.414       .  A
C492       Br493   1.918       .  S
C497        C498   1.410       .  A
C497        C502   1.403       .  A
C497        H504   1.083       .  S
C498        C499   1.409       .  A
C499        C500   1.399       .  A
C499       Br506   1.922       .  S
C500        C501   1.412       .  A
C500        H505   1.083       .  S
C501        C502   1.411       .  A
C502       Br503   1.920   1_545  S
C507        C508   1.407       .  A
C507        C512   1.400       .  A
C507        H514   1.084       .  S
C508        C509   1.407       .  A
C509        C510   1.408       .  A
C509       Br516   1.915       .  S
C510        C511   1.409       .  A
C510        H515   1.084       .  S
C511        C512   1.405       .  A
C512       Br513   1.917       .  S
C517        C518   1.406       .  A
C517        C522   1.412       .  A
C517        H524   1.083       .  S
C518        C519   1.408       .  A
C519        C520   1.395       .  A
C519       Br526   1.915       .  S
C520        C521   1.402       .  A
C520        H525   1.084       .  S
C521        C522   1.413       .  A
C522       Br523   1.917       .  S
C527        C528   1.404       .  A
C527        C532   1.395       .  A
C527        H534   1.084       .  S
C528        C529   1.409       .  A
C529        C530   1.397       .  A
C529       Br536   1.922       .  S
C530        C531   1.406       .  A
C530        H535   1.084       .  S
C531        C532   1.409       .  A
C532       Br533   1.920       .  S
C537        C538   1.407       .  A
C537        C542   1.411       .  A
C537        H544   1.084   1_655  S
C538        C539   1.410       .  A
C539        C540   1.402       .  A
C539       Br546   1.920       .  S
C540        C541   1.405       .  A
C540        H545   1.083       .  S
C541        C542   1.414       .  A
C542       Br543   1.918   1_655  S
C547        C548   1.404       .  A
C547        C552   1.397       .  A
C547        H554   1.084       .  S
C548        C549   1.409       .  A
C549        C550   1.410       .  A
C549       Br556   1.915       .  S
C550        C551   1.407       .  A
C550        H555   1.083       .  S
C551        C552   1.411       .  A
C552       Br553   1.921       .  S
C557        C558   1.401       .  A
C557        C562   1.397       .  A
C557        H564   1.084       .  S
C558        C559   1.416       .  A
C559        C560   1.395       .  A
C559       Br566   1.922       .  S
C560        C561   1.399       .  A
C560        H565   1.084       .  S
C561        C562   1.415       .  A
C562       Br563   1.921       .  S
C567        C568   1.410       .  A
C567        C572   1.404       .  A
C567        H574   1.083       .  S
C568        C569   1.408       .  A
C569        C570   1.398       .  A
C569       Br576   1.922   1_655  S
C570        C571   1.413       .  A
C570        H575   1.083       .  S
C571        C572   1.412       .  A
C572       Br573   1.920       .  S
C577        C578   1.406       .  A
C577        C582   1.396       .  A
C577        H584   1.084   1_554  S
C578        C579   1.411       .  A
C579        C580   1.407       .  A
C579       Br586   1.918   1_655  S
C580        C581   1.411       .  A
C580        H585   1.083       .  S
C581        C582   1.418       .  A
C582       Br583   1.925       .  S
C587        C588   1.399       .  A
C587        C592   1.402       .  A
C587        H594   1.084       .  S
C588        C589   1.408   1_554  A
C589        C590   1.411       .  A
C589       Br596   1.916   1_545  S
C590        C591   1.413       .  A
C590        H595   1.083       .  S
C591        C592   1.423   1_556  A
C592       Br593   1.923       .  S
C597        C598   1.405       .  A
C597        C602   1.407       .  A
C597        H604   1.083       .  S
C598        C599   1.420       .  A
C599        C600   1.400       .  A
C599       Br606   1.924       .  S
C600        C601   1.400       .  A
C600        H605   1.084       .  S
C601        C602   1.414       .  A
C602       Br603   1.918   1_545  S
C607        C608   1.412       .  A
C607        C612   1.403       .  A
C607        H614   1.083       .  S
C608        C609   1.418       .  A
C609        C610   1.399       .  A
C609       Br616   1.923       .  S
C610        C611   1.400       .  A
C610        H615   1.083       .  S
C611        C612   1.405       .  A
C612       Br613   1.918   1_655  S
C617        C618   1.401       .  A
C617        C622   1.396       .  A
C617        H624   1.084       .  S
C618        C619   1.407       .  A
C619        C620   1.406       .  A
C619       Br626   1.916       .  S
C620        C621   1.413       .  A
C620        H625   1.083       .  S
C621        C622   1.420       .  A
C622       Br623   1.925       .  S
C627        C628   1.404       .  A
C627        C632   1.398   1_556  A
C627        H634   1.084   1_556  S
C628        C629   1.424       .  A
C629        C630   1.405       .  A
C629       Br636   1.922       .  S
C630        C631   1.398   1_556  A
C630        H635   1.083       .  S
C631        C632   1.412       .  A
C632       Br633   1.921       .  S
C637        C638   1.401   1_556  A
C637        C642   1.402   1_556  A
C637        H644   1.084       .  S
C638        C639   1.406       .  A
C639        C640   1.404       .  A
C639       Br646   1.918       .  S
C640        C641   1.412       .  A
C640        H645   1.083       .  S
C641        C642   1.417       .  A
C642       Br643   1.921   1_554  S
C647        C648   1.403       .  A
C647        C652   1.390       .  A
C647        H654   1.084       .  S
C648        C649   1.407       .  A
C649        C650   1.397       .  A
C649       Br656   1.920       .  S
C650        C651   1.406       .  A
C650        H655   1.084       .  S
C651        C652   1.407       .  A
C652       Br653   1.912       .  S
C657        C658   1.405       .  A
C657        C662   1.395       .  A
C657        H664   1.084       .  S
C658        C659   1.409       .  A
C659        C660   1.402       .  A
C659       Br666   1.922       .  S
C660        C661   1.412       .  A
C660        H665   1.084       .  S
C661        C662   1.411       .  A
C662       Br663   1.921       .  S
C667        C668   1.402       .  A
C667        C672   1.404       .  A
C667        H674   1.083       .  S
C668        C669   1.428       .  A
C669        C670   1.404       .  A
C669       Br676   1.925       .  S
C670        C671   1.399       .  A
C670        H675   1.084       .  S
C671        C672   1.423       .  A
C672       Br673   1.923       .  S
C677        C678   1.406       .  A
C677        C682   1.398       .  A
C677        H684   1.084       .  S
C678        C679   1.405       .  A
C679        C680   1.406       .  A
C679       Br686   1.916       .  S
C680        C681   1.413       .  A
C680        H685   1.083       .  S
C681        C682   1.412       .  A
C682       Br683   1.923       .  S
C687        C688   1.403       .  A
C687        C692   1.393       .  A
C687        H694   1.083       .  S
C688        C689   1.410       .  A
C689        C690   1.406       .  A
C689       Br696   1.919       .  S
C690        C691   1.411       .  A
C690        H695   1.083       .  S
C691        C692   1.417       .  A
C692       Br693   1.925       .  S
C697        C698   1.406       .  A
C697        C702   1.408       .  A
C697        H704   1.083       .  S
C698        C699   1.410       .  A
C699        C700   1.398       .  A
C699       Br706   1.916       .  S
C700        C701   1.402       .  A
C700        H705   1.084       .  S
C701        C702   1.411       .  A
C702       Br703   1.917   1_545  S
C707        C708   1.405       .  A
C707        C712   1.408       .  A
C707        H714   1.084       .  S
C708        C709   1.410       .  A
C709        C710   1.401       .  A
C709       Br716   1.920       .  S
C710        C711   1.405       .  A
C710        H715   1.083       .  S
C711        C712   1.416       .  A
C712       Br713   1.919       .  S
C717        C718   1.403       .  A
C717        C722   1.395       .  A
C717        H724   1.084   1_554  S
C718        C719   1.407       .  A
C719        C720   1.409       .  A
C719       Br726   1.917   1_565  S
C720        C721   1.415       .  A
C720        H725   1.083       .  S
C721        C722   1.413       .  A
C722       Br723   1.922       .  S
C727        C728   1.416       .  A
C727        C732   1.405       .  A
C727        H734   1.083       .  S
C728        C729   1.420   1_556  A
C729        C730   1.395       .  A
C729       Br736   1.924       .  S
C730        C731   1.401       .  A
C730        H735   1.084       .  S
C731        C732   1.404   1_554  A
C732       Br733   1.918       .  S
C737        C738   1.409       .  A
C737        C742   1.406       .  A
C737        H744   1.083       .  S
C738        C739   1.406       .  A
C739        C740   1.400   1_565  A
C739       Br746   1.919   1_565  S
C740        C741   1.410   1_545  A
C740        H745   1.085       .  S
C741        C742   1.406       .  A
C742       Br743   1.915       .  S
C747        C748   1.405       .  A
C747        C752   1.399       .  A
C747        H754   1.084       .  S
C748        C749   1.413       .  A
C749        C750   1.415       .  A
C749       Br756   1.916       .  S
C750        C751   1.411       .  A
C750        H755   1.083       .  S
C751        C752   1.415       .  A
C752       Br753   1.922       .  S
C757        C758   1.409       .  A
C757        C762   1.403   1_565  A
C757        H764   1.083   1_565  S
C758        C759   1.411       .  A
C759        C760   1.397       .  A
C759       Br766   1.923       .  S
C760        C761   1.410       .  A
C760        H765   1.083       .  S
C761        C762   1.413   1_565  A
C762       Br763   1.921       .  S
C767        C768   1.411       .  A
C767        C772   1.407   1_565  A
C767        H774   1.083       .  S
C768        C769   1.416       .  A
C769        C770   1.403       .  A
C769       Br776   1.922       .  S
C770        C771   1.402       .  A
C770        H775   1.083       .  S
C771        C772   1.407   1_565  A
C772       Br773   1.916       .  S
C777        C778   1.403       .  A
C777        C782   1.407       .  A
C777        H784   1.083       .  S
C778        C779   1.408       .  A
C779        C780   1.394       .  A
C779       Br786   1.914       .  S
C780        C781   1.407       .  A
C780        H785   1.083       .  S
C781        C782   1.421       .  A
C782       Br783   1.921       .  S
C787        C788   1.404       .  A
C787        C792   1.406       .  A
C787        H794   1.082       .  S
C788        C789   1.411       .  A
C789        C790   1.402       .  A
C789       Br796   1.910   1_455  S
C790        C791   1.398       .  A
C790        H795   1.084       .  S
C791        C792   1.411       .  A
C792       Br793   1.916       .  S
C797        C798   1.404       .  A
C797        C802   1.394       .  A
C797        H804   1.081       .  S
C798        C799   1.406       .  A
C799        C800   1.410       .  A
C799       Br806   1.913       .  S
C800        C801   1.412       .  A
C800        H805   1.083       .  S
C801        C802   1.409       .  A
C802       Br803   1.924       .  S
C807        C808   1.405       .  A
C807        C812   1.402       .  A
C807        H814   1.084       .  S
C808        C809   1.400       .  A
C809        C810   1.388       .  A
C809       Br816   1.919       .  S
C810        C811   1.410       .  A
C810        H815   1.083       .  S
C811        C812   1.415       .  A
C812       Br813   1.920       .  S
C817        C818   1.403       .  A
C817        C822   1.392   1_556  A
C817        H824   1.084       .  S
C818        C819   1.406       .  A
C819        C820   1.410   1_556  A
C819       Br826   1.916   1_455  S
C820        C821   1.416       .  A
C820        H825   1.083   1_455  S
C821        C822   1.420       .  A
C822       Br823   1.926       .  S
C827        C828   1.402       .  A
C827        C832   1.407       .  A
C827        H834   1.083       .  S
C828        C829   1.406       .  A
C829        C830   1.393       .  A
C829       Br836   1.915   1_554  S
C830        C831   1.407       .  A
C830        H835   1.083       .  S
C831        C832   1.422       .  A
C832       Br833   1.921       .  S
C837        C838   1.405       .  A
C837        C842   1.399       .  A
C837        H844   1.084       .  S
C838        C839   1.413       .  A
C839        C840   1.410       .  A
C839       Br846   1.918   1_655  S
C840        C841   1.407       .  A
C840        H845   1.083       .  S
C841        C842   1.412       .  A
C842       Br843   1.920       .  S
C847        C848   1.409       .  A
C847        C852   1.407       .  A
C847        H854   1.083       .  S
C848        C849   1.402       .  A
C849        C850   1.399       .  A
C849       Br856   1.915       .  S
C850        C851   1.410       .  A
C850        H855   1.084       .  S
C851        C852   1.406       .  A
C852       Br853   1.915       .  S
C857        C858   1.407       .  A
C857        C862   1.402       .  A
C857        H864   1.083       .  S
C858        C859   1.414       .  A
C859        C860   1.389       .  A
C859       Br866   1.925       .  S
C860        C861   1.397       .  A
C860        H865   1.084       .  S
C861        C862   1.408       .  A
C862       Br863   1.920       .  S
C867        C868   1.397       .  A
C867        C872   1.400       .  A
C867        H874   1.084       .  S
C868        C869   1.418       .  A
C869        C870   1.403       .  A
C869       Br876   1.923       .  S
C870        C871   1.404       .  A
C870        H875   1.083       .  S
C871        C872   1.425       .  A
C872       Br873   1.924       .  S
C877        C878   1.397       .  A
C877        C882   1.395       .  A
C877        H884   1.084       .  S
C878        C879   1.412       .  A
C879        C880   1.406       .  A
C879       Br886   1.914       .  S
C880        C881   1.404       .  A
C880        H885   1.083       .  S
C881        C882   1.417       .  A
C882       Br883   1.922       .  S
C887        C888   1.402       .  A
C887        C892   1.400       .  A
C887        H894   1.084       .  S
C888        C889   1.405       .  A
C889        C890   1.403       .  A
C889       Br896   1.917   1_455  S
C890        C891   1.414       .  A
C890        H895   1.083       .  S
C891        C892   1.417       .  A
C892       Br893   1.922       .  S
