geometry optimzed in LAMMPS
_audit_creation_date              2020-12-01 
_audit_creation_method            'lammps2cif' 
_symmetry_space_group_name_H-M    'P1' 
_symmetry_Int_Tables_number       1 
_symmetry_cell_setting            triclinic 
loop_ 
_symmetry_equiv_pos_as_xyz 
  x,y,z 
_cell_length_a                    32.84400049 
_cell_length_b                    33.06506479573738 
_cell_length_c                    44.57293872948026 
_cell_angle_alpha                 89.59842161118324 
_cell_angle_beta                  89.02021437139375 
_cell_angle_gamma                 120.22052673462167 
loop_ 
_atom_site_label 
_atom_site_type_symbol 
_atom_site_fract_x 
_atom_site_fract_y 
_atom_site_fract_z 
_atom_site_charge 
O1          O  0.51257817  0.05998502  0.05133452    -0.83600
C2          C  0.66889280  0.17685621  0.48140480     0.95800
O3          O  0.63599837  0.17709946  0.99602836    -0.72700
O4          O  0.56141602  0.15604050  0.02754363    -0.76300
Al5        Al  0.60996990  0.14040239  0.03059117     1.49000
C6          C  0.53109135  0.14412957  0.00747079     0.91000
O7          O  0.52040169  0.04640970  0.46492197    -0.82500
O8          O  0.57242536  0.00528288  0.48493526    -0.76100
Al9        Al  0.52142559  0.05525565  0.50846901     1.90100
O10         O  0.59585363  0.08192585  0.45170836    -0.75100
O11         O  0.65373068  0.07078086  0.02171645    -0.75000
O12         O  0.67121262  0.13964891  0.47976114    -0.80600
O13         O  0.66610032  0.13846608  0.03883186    -0.78800
O14         O  0.58370174  0.08992532  0.00877856    -1.15000
O15         O  0.58521168  0.10603309  0.06611786    -0.74200
C16         C  0.54294664  0.07566482  0.07187968     0.96500
C17         C  0.55335206  0.06378576  0.44499820     0.92900
Al18       Al  0.62029683  0.07487568  0.48679162     1.55600
O19         O  0.51193168  0.10396510  0.99716840    -0.78800
C20         C  0.67879375  0.10829626  0.03650488     0.97100
C21         C  0.53146768  0.98310259  0.49753487     0.92000
O22         O  0.52440617  0.00228885  0.51932066    -0.84100
O23         O  0.42576061  0.07718021  0.27810247    -0.83600
C24         C  0.61963706  0.15121511  0.24737752     0.95800
O25         O  0.60366819  0.16811504  0.26631424    -0.72700
O26         O  0.54256127  0.17894900  0.23762267    -0.76300
Al27       Al  0.53998924  0.15151357  0.27480592     1.49000
C28         C  0.50573269  0.17431560  0.22620027     0.91000
O29         O  0.48261650  0.07297052  0.20394706    -0.82500
O30         O  0.48853882  0.01306989  0.27765525    -0.76100
Al31       Al  0.45705173  0.07389307  0.24106160     1.90100
O32         O  0.52606718  0.04270492  0.21774051    -0.75100
O33         O  0.56320642  0.07871308  0.29996583    -0.75000
O34         O  0.59737955  0.10890612  0.24127620    -0.80600
O35         O  0.53823335  0.12679370  0.31274391    -0.78800
O36         O  0.51306873  0.09611118  0.25845268    -1.15000
O37         O  0.48278184  0.14917649  0.28698089    -0.74200
C38         C  0.43996890  0.11762924  0.28949992     0.96500
C39         C  0.50678195  0.05432031  0.19746642     0.92900
Al40       Al  0.54173949  0.06294276  0.25931309     1.55600
O41         O  0.46706615  0.13564919  0.22898973    -0.78800
C42         C  0.55053590  0.09771690  0.31985252     0.97100
C43         C  0.45875715  0.98748763  0.25936167     0.92000
O44         O  0.43714768  0.00502776  0.24568027    -0.84100
O45         O  0.55570734  0.44599759  0.03963587    -0.83600
C46         C  0.50616431  0.29044714  0.47086743     0.95800
O47         O  0.54206708  0.32567913  0.98042641    -0.72700
O48         O  0.60146478  0.39782692  0.00842068    -0.76300
Al49       Al  0.53754096  0.35033665  0.01693542     1.49000
C50         C  0.61859784  0.43224477  0.99032803     0.91000
O51         O  0.52419848  0.44089333  0.45575640    -0.82500
O52         O  0.43419024  0.38885352  0.48085461    -0.76100
Al53       Al  0.53711034  0.43851868  0.49833419     1.90100
O54         O  0.48405477  0.36645064  0.44299566    -0.75100
O55         O  0.42264926  0.30944689  0.51726094    -0.75000
O56         O  0.46679414  0.28914442  0.47173454    -0.80600
O57         O  0.47933473  0.29523287  0.02961486    -0.78800
O58         O  0.51038432  0.37704019  0.49864752    -1.15000
O59         O  0.53452025  0.37427464  0.05430373    -0.74200
C60         C  0.54486551  0.41545501  0.06030230     0.96500
C61         C  0.50832118  0.40921794  0.43592362     0.92900
Al62       Al  0.45565151  0.34134041  0.48000064     1.55600
O63         O  0.59538455  0.45093316  0.98289616    -0.78800
C64         C  0.43639010  0.28438551  0.03105188     0.97100
C65         C  0.45236016  0.42712958  0.49510718     0.92000
O66         O  0.48157283  0.43282812  0.51432337    -0.84100
O67         O  0.65760378  0.55002436  0.26103742    -0.83600
C68         C  0.54099262  0.35297261  0.24330295     0.95800
O69         O  0.57489272  0.37220045  0.26093813    -0.72700
O70         O  0.64655595  0.43207127  0.22976984    -0.76300
Al71       Al  0.62030278  0.43678037  0.26603068     1.49000
C72         C  0.67837940  0.46788254  0.21629514     0.91000
O73         O  0.59849178  0.48451943  0.19029861    -0.82500
O74         O  0.52927930  0.48427376  0.26153405    -0.76100
Al75       Al  0.62402063  0.51441477  0.22582050     1.90100
O76         O  0.52410236  0.44069471  0.20532028    -0.75100
O77         O  0.52212741  0.41371976  0.29035995    -0.75000
O78         O  0.51986090  0.37341246  0.23504513    -0.80600
O79         O  0.59544736  0.43999771  0.30345214    -0.78800
O80         O  0.59060525  0.46043112  0.24690657    -1.15000
O81         O  0.67418667  0.49589150  0.27538632    -0.74200
C82         C  0.68435943  0.53822490  0.27464191     0.96500
C83         C  0.55571778  0.45816669  0.18457023     0.92900
Al84       Al  0.52817700  0.43037177  0.24818356     1.55600
O85         O  0.67739651  0.50576258  0.21626758    -0.78800
C86         C  0.55310666  0.42639378  0.31035468     0.97100
C87         C  0.53429856  0.51227757  0.24106292     0.92000
O88         O  0.57401435  0.53275617  0.22705826    -0.84100
O89         O  0.88647677  0.30791346  0.27265513    -0.83600
C90         C  0.81173928  0.42713679  0.24679410     0.95800
O91         O  0.79185971  0.39023303  0.26250855    -0.72700
O92         O  0.78624982  0.32215324  0.23324745    -0.76300
Al93       Al  0.80977493  0.34520711  0.27110418     1.49000
C94         C  0.79273511  0.29163763  0.22111412     0.91000
O95         O  0.89305929  0.37325168  0.20013749    -0.82500
O96         O  0.95191416  0.43503602  0.27328730    -0.76100
Al97       Al  0.89124348  0.34440090  0.23643971     1.90100
O98         O  0.91979290  0.44562462  0.21567805    -0.75100
O99         O  0.88469429  0.43901763  0.30000059    -0.75000
O100        O  0.85529655  0.44966811  0.24337403    -0.80600
O101        O  0.82910476  0.36650923  0.31020347    -0.78800
O102        O  0.86737490  0.37615385  0.25561182    -1.15000
O103        O  0.81332584  0.29135643  0.28278691    -0.74200
C104        C  0.84540824  0.28103410  0.28472080     0.96500
C105        C  0.90867789  0.41607140  0.19468851     0.92900
Al106      Al  0.90075614  0.43796610  0.25819948     1.55600
O107        O  0.83136655  0.29249613  0.22423138    -0.78800
C108        C  0.85940679  0.40656210  0.31887182     0.97100
C109        C  0.97721641  0.43173296  0.25355456     0.92000
O110        O  0.95958295  0.39292365  0.24008604    -0.84100
O111        O  0.90803547  0.43210926  0.04909103    -0.83600
C112        C  0.79983149  0.48356233  0.47963061     0.95800
O113        O  0.79075772  0.46697505  0.00584769    -0.72700
O114        O  0.78295774  0.38682068  0.01272936    -0.76300
Al115      Al  0.81905695  0.44578836  0.03249484     1.49000
C116        C  0.79552078  0.35683418  0.01001330     0.91000
O117        O  0.87354436  0.40817079  0.46651046    -0.82500
O118        O  0.96192456  0.53266106  0.50004993    -0.76100
Al119      Al  0.89014142  0.42042804  0.50831271     1.90100
O120        O  0.90708212  0.48300521  0.45317792    -0.75100
O121        O  0.88704226  0.55189841  0.51564786    -0.75000
O122        O  0.84020232  0.49994129  0.46771897    -0.80600
O123        O  0.84728490  0.50308370  0.05289014    -0.78800
O124        O  0.86949922  0.46097278  0.00949652    -1.15000
O125        O  0.83957301  0.42248542  0.06506045    -0.74200
C126        C  0.88022950  0.42874418  0.07031831     0.96500
C127        C  0.88808367  0.44024432  0.44625756     0.92900
Al128      Al  0.89732473  0.51302551  0.48662032     1.55600
O129        O  0.83447562  0.36593976  0.01969527    -0.78800
C130        C  0.86229472  0.54217986  0.03988591     0.97100
C131        C  0.97768624  0.50456905  0.49621942     0.92000
O132        O  0.95041836  0.46162215  0.49737641    -0.84100
O133        O  0.57674013  0.76098934  0.21889565    -0.83600
C134        C  0.46687005  0.81170623  0.15090452     0.95800
O135        O  0.45953814  0.79821659  0.17783254    -0.72700
O136        O  0.45160212  0.71755445  0.18320329    -0.76300
Al137      Al  0.48816587  0.77554943  0.20346357     1.49000
C138        C  0.46358086  0.68730641  0.17925666     0.91000
O139        O  0.54322980  0.73963436  0.13602225    -0.82500
O140        O  0.62952293  0.86386058  0.17038425    -0.76100
Al141      Al  0.55913998  0.75064221  0.17793150     1.90100
O142        O  0.57599581  0.81458679  0.12353515    -0.75100
O143        O  0.55297067  0.88093737  0.18649689    -0.75000
O144        O  0.50670198  0.82733668  0.13833564    -0.80600
O145        O  0.51774349  0.83240046  0.22459150    -0.78800
O146        O  0.53807092  0.79081501  0.17985819    -1.15000
O147        O  0.50805701  0.75022929  0.23496060    -0.74200
C148        C  0.54893933  0.75728154  0.24018687     0.96500
C149        C  0.55770265  0.77217558  0.11614468     0.92900
Al150      Al  0.56465261  0.84295122  0.15712345     1.55600
O151        O  0.50274649  0.69536635  0.18815799    -0.78800
C152        C  0.53077693  0.87129065  0.21178050     0.97100
C153        C  0.64619973  0.83649387  0.16637045     0.92000
O154        O  0.61971792  0.79329902  0.16762437    -0.84100
O155        O  0.55773031  0.64313304  0.44154778    -0.83600
C156        C  0.48049246  0.76021547  0.41754267     0.95800
O157        O  0.46272604  0.72514088  0.43499934    -0.72700
O158        O  0.45598524  0.65735244  0.40405561    -0.76300
Al159      Al  0.48070320  0.67947290  0.44168913     1.49000
C160        C  0.46210402  0.62712107  0.39114249     0.91000
O161        O  0.56313790  0.70820049  0.36979995    -0.82500
O162        O  0.62109593  0.76967469  0.44352988    -0.76100
Al163      Al  0.56149324  0.67941237  0.40583879     1.90100
O164        O  0.59071332  0.78055581  0.38549740    -0.75100
O165        O  0.55318550  0.77368653  0.46967001    -0.75000
O166        O  0.52374138  0.78259345  0.41217116    -0.80600
O167        O  0.50172309  0.69991370  0.48033499    -0.78800
O168        O  0.53760670  0.71071730  0.42537588    -1.15000
O169        O  0.48431612  0.62508700  0.45197062    -0.74200
C170        C  0.51679596  0.61521220  0.45315493     0.96500
C171        C  0.57967044  0.75110466  0.36446513     0.92900
Al172      Al  0.57018287  0.77243750  0.42782150     1.55600
O173        O  0.50077380  0.62757001  0.39357747    -0.78800
C174        C  0.53012836  0.74070115  0.48875593     0.97100
C175        C  0.64700670  0.76666176  0.42408315     0.92000
O176        O  0.62976733  0.72834895  0.40995968    -0.84100
O177        O  0.08773191  0.40981970  0.43856033    -0.83600
C178        C  0.28301381  0.48659854  0.40873008     0.95800
O179        O  0.26575521  0.50304624  0.42702562    -0.72700
O180        O  0.20392644  0.51305276  0.39867454    -0.76300
Al181      Al  0.20193107  0.48523829  0.43567209     1.49000
C182        C  0.16679175  0.50836579  0.38769191     0.91000
O183        O  0.14564581  0.40833408  0.36397149    -0.82500
O184        O  0.15134456  0.34677578  0.43696266    -0.76100
Al185      Al  0.11946835  0.40783987  0.40127816     1.90100
O186        O  0.18997053  0.37891460  0.37765110    -0.75100
O187        O  0.22496291  0.41168559  0.46030300    -0.75000
O188        O  0.26105736  0.44441697  0.40215044    -0.80600
O189        O  0.20074434  0.46011922  0.47356942    -0.78800
O190        O  0.17553622  0.43020902  0.41886077    -1.15000
O191        O  0.14453255  0.48168436  0.44816777    -0.74200
C192        C  0.10185933  0.44988113  0.45059103     0.96500
C193        C  0.17083061  0.39077287  0.35743423     0.92900
Al194      Al  0.20466222  0.39751294  0.41938820     1.55600
O195        O  0.12848107  0.46939233  0.39014384    -0.78800
C196        C  0.21261100  0.43058325  0.48043600     0.97100
C197        C  0.12180091  0.32143265  0.41849842     0.92000
O198        O  0.10029592  0.33907655  0.40485070    -0.84100
O199        O  0.18016789  0.39242714  0.21148969    -0.83600
C200        C  0.33460471  0.51137700  0.14094072     0.95800
O201        O  0.29990326  0.50952754  0.15448653    -0.72700
O202        O  0.22559810  0.48697055  0.18649448    -0.76300
Al203      Al  0.27582802  0.47366360  0.18954895     1.49000
C204        C  0.19397661  0.47303965  0.16712640     0.91000
O205        O  0.18643153  0.37574319  0.12565262    -0.82500
O206        O  0.24187212  0.33922778  0.14507431    -0.76100
Al207      Al  0.18869853  0.38631393  0.16896788     1.90100
O208        O  0.26120927  0.41445561  0.11077311    -0.75100
O209        O  0.32292138  0.40678955  0.18002096    -0.75000
O210        O  0.33757418  0.47462425  0.13838285    -0.80600
O211        O  0.33313389  0.47356259  0.19749187    -0.78800
O212        O  0.25065591  0.42292109  0.16823424    -1.15000
O213        O  0.25266569  0.44012234  0.22565064    -0.74200
C214        C  0.21056230  0.40974656  0.23186667     0.96500
C215        C  0.21814709  0.39444388  0.10503574     0.92900
Al216      Al  0.28787921  0.40917170  0.14568487     1.55600
O217        O  0.17604108  0.43273892  0.15708297    -0.78800
C218        C  0.34716378  0.44442036  0.19480613     0.97100
C219        C  0.20255484  0.31620004  0.15950163     0.92000
O220        O  0.19581864  0.33608865  0.18096404    -0.84100
O221        O  0.22502141  0.77739362  0.20591205    -0.83600
C222        C  0.16491620  0.61840424  0.13883145     0.95800
O223        O  0.20196454  0.65118076  0.14948201    -0.72700
O224        O  0.26430161  0.72418091  0.17628775    -0.76300
Al225      Al  0.19951560  0.67891504  0.18513534     1.49000
C226        C  0.28268658  0.75749755  0.15733753     0.91000
O227        O  0.19002190  0.77174776  0.12274711    -0.82500
O228        O  0.10048891  0.72361756  0.14982537    -0.76100
Al229      Al  0.20447769  0.76923642  0.16490633     1.90100
O230        O  0.14597335  0.69750511  0.11064905    -0.75100
O231        O  0.08565621  0.64210601  0.18600195    -0.75000
O232        O  0.12694151  0.61984277  0.13979278    -0.80600
O233        O  0.14076456  0.62576987  0.19827150    -0.78800
O234        O  0.17443267  0.70738792  0.16618947    -1.15000
O235        O  0.19784728  0.70506581  0.22187463    -0.74200
C236        C  0.21142918  0.74726521  0.22710892     0.96500
C237        C  0.17135953  0.74001537  0.10314017     0.92900
Al238      Al  0.11869562  0.67353972  0.14837657     1.55600
O239        O  0.26065893  0.77686738  0.14862440    -0.78800
C240        C  0.09827374  0.61604126  0.19973548     0.97100
C241        C  0.12153954  0.76291391  0.16300240     0.92000
O242        O  0.15152977  0.76825468  0.18156288    -0.84100
O243        O  0.32347168  0.88040618  0.42877856    -0.83600
C244        C  0.20000577  0.68476862  0.40985887     0.95800
O245        O  0.23257654  0.70222488  0.42856227    -0.72700
O246        O  0.30669919  0.75973887  0.39795549    -0.76300
Al247      Al  0.28043775  0.76609657  0.43379883     1.49000
C248        C  0.34064870  0.79500605  0.38536673     0.91000
O249        O  0.26434257  0.81673935  0.35740024    -0.82500
O250        O  0.19462800  0.81916787  0.42789783    -0.76100
Al251      Al  0.28954360  0.84569054  0.39320665     1.90100
O252        O  0.18922931  0.77598891  0.37136160    -0.75100
O253        O  0.18282987  0.74662493  0.45665823    -0.75000
O254        O  0.18091535  0.70686704  0.40096860    -0.80600
O255        O  0.25540314  0.77108027  0.47068286    -0.78800
O256        O  0.25354277  0.79200021  0.41401199    -1.15000
O257        O  0.33615875  0.82385830  0.44359056    -0.74200
C258        C  0.34859631  0.86684196  0.44276486     0.96500
C259        C  0.22158864  0.79237191  0.35102181     0.92900
Al260      Al  0.19119060  0.76431864  0.41440632     1.55600
O261        O  0.34134998  0.83379469  0.38461140    -0.78800
C262        C  0.21317820  0.75872842  0.47705410     0.97100
C263        C  0.20104753  0.84751195  0.40734420     0.92000
O264        O  0.24121005  0.86683705  0.39371229    -0.84100
O265        O  0.24347056  0.09526564  0.38328168    -0.83600
C266        C  0.13114734  0.14133807  0.31440683     0.95800
O267        O  0.12416850  0.12842639  0.34144608    -0.72700
O268        O  0.11787434  0.04929108  0.34789331    -0.76300
Al269      Al  0.15357144  0.10775184  0.36765459     1.49000
C270        C  0.13109900  0.02011008  0.34361456     0.91000
O271        O  0.20861351  0.07090509  0.30063189    -0.82500
O272        O  0.29446977  0.19634548  0.33474977    -0.76100
Al273      Al  0.22520733  0.08330091  0.34253054     1.90100
O274        O  0.24160036  0.14570328  0.28774605    -0.75100
O275        O  0.21697316  0.21279842  0.34939283    -0.75000
O276        O  0.17106832  0.15741038  0.30177097    -0.80600
O277        O  0.18201564  0.16543426  0.38801327    -0.78800
O278        O  0.20349693  0.12302396  0.34406709    -1.15000
O279        O  0.17481424  0.08444058  0.39960982    -0.74200
C280        C  0.21606651  0.09229107  0.40464007     0.96500
C281        C  0.22306721  0.10316790  0.28053836     0.92900
Al282      Al  0.22947242  0.17446102  0.32084638     1.55600
O283        O  0.16955675  0.02828708  0.35375794    -0.78800
C284        C  0.19448014  0.20375080  0.37452381     0.97100
C285        C  0.31160048  0.16923417  0.33121704     0.92000
O286        O  0.28531626  0.12600900  0.33175175    -0.84100
O287        O  0.22574136  0.97758499  0.10431206    -0.83600
C288        C  0.14843096  0.09582506  0.08192797     0.95800
O289        O  0.12961530  0.05884734  0.09765463    -0.72700
O290        O  0.12456727  0.99243922  0.06640469    -0.76300
Al291      Al  0.14814507  0.01353937  0.10442423     1.49000
C292        C  0.13131211  0.96291064  0.05311410     0.91000
O293        O  0.23234127  0.04521271  0.03326986    -0.82500
O294        O  0.28956432  0.10473950  0.10708346    -0.76100
Al295      Al  0.23000489  0.01499072  0.06894616     1.90100
O296        O  0.25843321  0.11696741  0.04984923    -0.75100
O297        O  0.22110293  0.10664614  0.13419446    -0.75000
O298        O  0.19187605  0.11850767  0.07755906    -0.80600
O299        O  0.16772176  0.03300038  0.14364240    -0.78800
O300        O  0.20560361  0.04563427  0.08883664    -1.15000
O301        O  0.15207944  0.95899413  0.11442630    -0.74200
C302        C  0.18480031  0.94943031  0.11586293     0.96500
C303        C  0.24827157  0.08821084  0.02847670     0.92900
Al304      Al  0.23813546  0.10737030  0.09222098     1.55600
O305        O  0.16989434  0.96338816  0.05590029    -0.78800
C306        C  0.19673995  0.07321058  0.15273932     0.97100
C307        C  0.31508116  0.10193296  0.08723577     0.92000
O308        O  0.29794284  0.06335629  0.07353068    -0.84100
O309        O  0.85098501  0.74185853  0.37203137    -0.83600
C310        C  0.00833021  0.85163812  0.30031981     0.95800
O311        O  0.97437631  0.85271516  0.31280624    -0.72700
O312        O  0.90103321  0.83731094  0.34282976    -0.76300
Al313      Al  0.94847946  0.82060060  0.34886028     1.49000
C314        C  0.86790235  0.82166867  0.32447619     0.91000
O315        O  0.85779401  0.72055626  0.28673812    -0.82500
O316        O  0.90930429  0.68095813  0.30934954    -0.76100
Al317      Al  0.85943627  0.73327248  0.32983420     1.90100
O318        O  0.93295605  0.75467546  0.27284041    -0.75100
O319        O  0.99040154  0.74837145  0.34466568    -0.75000
O320        O  0.00963171  0.81387016  0.30024912    -0.80600
O321        O  0.00400003  0.81782942  0.35913372    -0.78800
O322        O  0.92159672  0.76790316  0.32942026    -1.15000
O323        O  0.92330465  0.79076344  0.38598185    -0.74200
C324        C  0.88130908  0.76017260  0.39239669     0.96500
C325        C  0.89024877  0.73664985  0.26643734     0.92900
Al326      Al  0.95758819  0.75021585  0.30886220     1.55600
O327        O  0.84885449  0.78031667  0.31625343    -0.78800
C328        C  0.01582496  0.78676954  0.35851523     0.97100
C329        C  0.86931604  0.66015049  0.32309655     0.92000
O330        O  0.86320252  0.68193337  0.34359316    -0.84100
O331        O  0.75707891  0.74828684  0.10097931    -0.83600
C332        C  0.95188043  0.82487915  0.06896327     0.95800
O333        O  0.93478838  0.84208017  0.08680034    -0.72700
O334        O  0.87176820  0.85149539  0.05962696    -0.76300
Al335      Al  0.87122028  0.82419411  0.09657561     1.49000
C336        C  0.83415153  0.84640632  0.04918200     0.91000
O337        O  0.81310157  0.74735289  0.02543124    -0.82500
O338        O  0.82003398  0.68573295  0.09803668    -0.76100
Al339      Al  0.78768610  0.74651690  0.06311657     1.90100
O340        O  0.85810516  0.71824286  0.03816807    -0.75100
O341        O  0.89413939  0.74994813  0.12095790    -0.75000
O342        O  0.92967805  0.78254827  0.06283576    -0.80600
O343        O  0.87160132  0.79962354  0.13445091    -0.78800
O344        O  0.84434153  0.76902227  0.08002827    -1.15000
O345        O  0.81393765  0.82038530  0.11014716    -0.74200
C346        C  0.77146780  0.78818278  0.11331709     0.96500
C347        C  0.83903770  0.73087428  0.01829095     0.92900
Al348      Al  0.87322935  0.73611153  0.08013191     1.55600
O349        O  0.79600225  0.80755770  0.05235062    -0.78800
C350        C  0.88305061  0.76971751  0.14118774     0.97100
C351        C  0.78973299  0.66030669  0.08003599     0.92000
O352        O  0.76852571  0.67808926  0.06634250    -0.84100
O353        O  0.87295639  0.10972245  0.38104715    -0.83600
C354        C  0.82304331  0.95294608  0.31014646     0.95800
O355        O  0.84145674  0.96148439  0.33536091    -0.72700
O356        O  0.92156182  0.03616767  0.33852272    -0.76300
Al357      Al  0.86309667  0.01044381  0.36169332     1.49000
C358        C  0.95067311  0.07926912  0.33560786     0.91000
O359        O  0.89383159  0.10351089  0.29699501    -0.82500
O360        O  0.76947187  0.06036754  0.33601276    -0.76100
Al361      Al  0.88333904  0.10571704  0.33939174     1.90100
O362        O  0.81836406  0.05798779  0.28661164    -0.75100
O363        O  0.75450532  0.96828144  0.35119437    -0.75000
O364        O  0.80440490  0.97516431  0.29988020    -0.80600
O365        O  0.80674196  0.97872892  0.38519483    -0.78800
O366        O  0.84448997  0.04399353  0.34092744    -1.15000
O367        O  0.88787214  0.05399358  0.39386373    -0.74200
C368        C  0.87889043  0.08582891  0.40103061     0.96500
C369        C  0.86085153  0.08470969  0.27815820     0.92900
Al370      Al  0.79076483  0.01768576  0.32068579     1.55600
O371        O  0.94025267  0.10749929  0.34670015    -0.78800
C372        C  0.76603015  0.95453656  0.37478510     0.97100
C373        C  0.79631822  0.10458865  0.33196421     0.92000
O374        O  0.83974294  0.12223422  0.33183759    -0.84100
O375        O  0.99007971  0.21296795  0.10066642    -0.83600
C376        C  0.87039194  0.01801747  0.07981477     0.95800
O377        O  0.90785410  0.03587864  0.09420707    -0.72700
O378        O  0.97719560  0.09750845  0.06375853    -0.76300
Al379      Al  0.95300153  0.09884591  0.10175518     1.49000
C380        C  0.01063931  0.13437166  0.05255758     0.91000
O381        O  0.92785417  0.14933974  0.02999659    -0.82500
O382        O  0.86463706  0.15194242  0.10360139    -0.76100
Al383      Al  0.95551378  0.17921739  0.06527362     1.90100
O384        O  0.85411848  0.10583537  0.04726854    -0.75100
O385        O  0.85853744  0.08210466  0.13227200    -0.75000
O386        O  0.84746591  0.03834042  0.07713231    -0.80600
O387        O  0.93064375  0.09740039  0.14071926    -0.78800
O388        O  0.92263371  0.12464439  0.08617084    -1.15000
O389        O  0.00635879  0.15730002  0.11248018    -0.74200
C390        C  0.01652204  0.19967964  0.11327661     0.96500
C391        C  0.88455773  0.12231813  0.02569931     0.92900
Al392      Al  0.86047559  0.09668367  0.09011138     1.55600
O393        O  0.00967543  0.17211725  0.05419716    -0.78800
C394        C  0.89090629  0.08913099  0.15027506     0.97100
C395        C  0.86720093  0.17818900  0.08267972     0.92000
O396        O  0.90586330  0.19808082  0.06761617    -0.84100
C397        C  0.88103882  0.13698924  0.44282701    -0.15100
C398        C  0.87474034  0.09400867  0.43309606     0.07000
C399        C  0.86399133  0.05813099  0.45436002    -0.15100
C400        C  0.86188373  0.06589081  0.48493305    -0.15100
C401        C  0.87106996  0.10975734  0.49465853     0.07000
C402        C  0.88011855  0.14509199  0.47348128    -0.15100
H403        H  0.88904436  0.16502230  0.42687397     0.11000
H404        H  0.85823195  0.02435937  0.44738569     0.11000
H405        H  0.85643722  0.03881659  0.50105676     0.11000
H406        H  0.88898079  0.17971675  0.48072371     0.11000
C407        C  0.83295540  0.07961985  0.22600802    -0.15100
C408        C  0.87045940  0.09151272  0.24555801     0.07000
C409        C  0.91497333  0.10398125  0.23351742    -0.15100
C410        C  0.92139680  0.10286697  0.20252527    -0.15100
C411        C  0.88345674  0.08948863  0.18303066     0.07000
C412        C  0.83940698  0.07872564  0.19507572    -0.15100
H413        H  0.79814808  0.06989518  0.23469125     0.11000
H414        H  0.94427800  0.11281698  0.24807735     0.11000
H415        H  0.95609316  0.11215744  0.19386233     0.11000
H416        H  0.80978039  0.06904847  0.18065885     0.11000
C417        C  0.87917985  0.92871194  0.03430822    -0.15100
C418        C  0.83467023  0.88929929  0.04022649     0.07000
C419        C  0.79814485  0.89574522  0.05139126    -0.15100
C420        C  0.80889638  0.93880374  0.06345336    -0.15100
C421        C  0.85595190  0.97509617  0.06357173     0.07000
C422        C  0.89023781  0.97114571  0.04692226    -0.15100
H423        H  0.90754764  0.92486138  0.02468354     0.11000
H424        H  0.76300286  0.86623524  0.05470304     0.11000
H425        H  0.78153439  0.94244048  0.07483434     0.11000
H426        H  0.92621327  0.00005184  0.04521567     0.11000
C427        C  0.88643819  0.89564428  0.29889357    -0.15100
C428        C  0.85267212  0.85231867  0.31131861     0.07000
C429        C  0.80471875  0.83824936  0.30991265    -0.15100
C430        C  0.79151356  0.87054310  0.30091058    -0.15100
C431        C  0.82631377  0.91679903  0.29379873     0.07000
C432        C  0.87291224  0.92704130  0.28888734    -0.15100
H433        H  0.92344501  0.90607650  0.29839061     0.11000
H434        H  0.77799700  0.80389818  0.31810922     0.11000
H435        H  0.75511232  0.86145870  0.30384115     0.11000
H436        H  0.90027323  0.96244851  0.28299803     0.11000
C437        C  0.90342509  0.75152289  0.44435224    -0.15100
C438        C  0.86843119  0.74590805  0.42418697     0.07000
C439        C  0.82209620  0.72808612  0.43494839    -0.15100
C440        C  0.81181345  0.71981325  0.46569802    -0.15100
C441        C  0.84743107  0.72814686  0.48603686     0.07000
C442        C  0.89289893  0.74229757  0.47503076    -0.15100
H443        H  0.93933516  0.76437913  0.43648332     0.11000
H444        H  0.79445279  0.72295925  0.41985731     0.11000
H445        H  0.77641580  0.70890142  0.47379893     0.11000
H446        H  0.92094711  0.74939805  0.49031420     0.11000
C447        C  0.85318968  0.75481678  0.22438927    -0.15100
C448        C  0.87997197  0.73558836  0.23449337     0.07000
C449        C  0.90538491  0.72462225  0.21359904    -0.15100
C450        C  0.90568871  0.73461968  0.18308041    -0.15100
C451        C  0.88148065  0.75681384  0.17312079     0.07000
C452        C  0.85420462  0.76567879  0.19392885    -0.15100
H453        H  0.83410868  0.76427222  0.24022575     0.11000
H454        H  0.92664815  0.71010532  0.22113506     0.11000
H455        H  0.92630378  0.72673029  0.16749974     0.11000
H456        H  0.83426784  0.78181790  0.18671769     0.11000
C457        C  0.12934375  0.15730089  0.06688650    -0.15100
C458        C  0.11891323  0.11063240  0.06676378     0.07000
C459        C  0.07992481  0.07730436  0.05119773    -0.15100
C460        C  0.04812639  0.08889460  0.03947767    -0.15100
C461        C  0.05360981  0.13316071  0.04486383     0.07000
C462        C  0.09663071  0.16858200  0.05577177    -0.15100
H463        H  0.16059766  0.18393279  0.07766949     0.11000
H464        H  0.07275848  0.04164033  0.04953241     0.11000
H465        H  0.01569477  0.06122246  0.03039366     0.11000
H466        H  0.10231779  0.20331608  0.05918244     0.11000
C467        C  0.07976066  0.87816711  0.04819504    -0.15100
C468        C  0.08978035  0.92343880  0.04025217     0.07000
C469        C  0.05249408  0.93081939  0.03311731    -0.15100
C470        C  0.00660714  0.89719840  0.04124313    -0.15100
C471        C  0.99768652  0.85507583  0.05463955     0.07000
C472        C  0.03348130  0.84386598  0.05569019    -0.15100
H473        H  0.10790147  0.87132307  0.05283712     0.11000
H474        H  0.05946385  0.96522643  0.02612802     0.11000
H475        H  0.97868581  0.90537249  0.03914908     0.11000
H476        H  0.02650224  0.81060518  0.06507436     0.11000
C477        C  0.11960365  0.94613938  0.32134719    -0.15100
C478        C  0.10494619  0.97923465  0.32462991     0.07000
C479        C  0.06742299  0.97469440  0.30773833    -0.15100
C480        C  0.04143755  0.93490936  0.29083728    -0.15100
C481        C  0.04975001  0.89728778  0.29341773     0.07000
C482        C  0.09228926  0.90540651  0.30537961    -0.15100
H483        H  0.15020021  0.95009414  0.33279578     0.11000
H484        H  0.05631853  0.00022945  0.30911200     0.11000
H485        H  0.00940043  0.92986684  0.28080354     0.11000
H486        H  0.10051108  0.87765524  0.30654719     0.11000
C487        C  0.21300931  0.11747357  0.45663846    -0.15100
C488        C  0.23164774  0.09877402  0.43590330     0.07000
C489        C  0.26394091  0.08584656  0.44557609    -0.15100
C490        C  0.27371531  0.08726637  0.47608129    -0.15100
C491        C  0.25247847  0.10298452  0.49703062     0.07000
C492        C  0.22372426  0.11998237  0.48697569    -0.15100
H493        H  0.18875549  0.12862696  0.44952709     0.11000
H494        H  0.27912641  0.07186369  0.42993739     0.11000
H495        H  0.29530134  0.07313074  0.48362871     0.11000
H496        H  0.20616367  0.13113251  0.50287668     0.11000
C497        C  0.18530335  0.04927473  0.23714205    -0.15100
C498        C  0.21826496  0.09329095  0.24799677     0.07000
C499        C  0.24388971  0.13045130  0.22726420    -0.15100
C500        C  0.23642511  0.12411774  0.19651837    -0.15100
C501        C  0.20311409  0.08040975  0.18555440     0.07000
C502        C  0.17779060  0.04289575  0.20619897    -0.15100
H503        H  0.16456550  0.02023818  0.25254838     0.11000
H504        H  0.26957321  0.16494623  0.23484505     0.11000
H505        H  0.25685509  0.15354276  0.18133381     0.11000
H506        H  0.15206109  0.00854489  0.19845050     0.11000
C507        C  0.05604201  0.08803371  0.29351140    -0.15100
C508        C  0.08966165  0.13492184  0.29897930     0.07000
C509        C  0.07384443  0.16520205  0.30785338    -0.15100
C510        C  0.02766278  0.14689603  0.31848810    -0.15100
C511        C  0.99642415  0.09813718  0.31941737     0.07000
C512        C  0.00975508  0.06911487  0.30469236    -0.15100
H513        H  0.06751663  0.06477111  0.28509903     0.11000
H514        H  0.09883606  0.20179118  0.31144914     0.11000
H515        H  0.01774662  0.17073182  0.32819334     0.11000
H516        H  0.98562264  0.03175866  0.30350080     0.11000
C517        C  0.14895441  0.83783379  0.36327780    -0.15100
C518        C  0.15689311  0.84358409  0.39436132     0.07000
C519        C  0.11695068  0.82949962  0.41343263    -0.15100
C520        C  0.07105730  0.80936149  0.40203595    -0.15100
C521        C  0.06296303  0.80032637  0.37127678     0.07000
C522        C  0.10273736  0.81562361  0.35204034    -0.15100
H523        H  0.17821682  0.84750023  0.34773598     0.11000
H524        H  0.12109281  0.83234629  0.43751579     0.11000
H525        H  0.04163756  0.80017787  0.41739012     0.11000
H526        H  0.09806737  0.81087348  0.32809314     0.11000
C527        C  0.13124189  0.81722734  0.11993892    -0.15100
C528        C  0.12516510  0.80734183  0.15101668     0.07000
C529        C  0.13990716  0.84569286  0.17039326    -0.15100
C530        C  0.16127025  0.89209038  0.15919580    -0.15100
C531        C  0.17075726  0.90199124  0.12833491     0.07000
C532        C  0.15466035  0.86383015  0.10887237    -0.15100
H533        H  0.12120558  0.78916037  0.10420562     0.11000
H534        H  0.13683224  0.83984762  0.19447238     0.11000
H535        H  0.17095237  0.92040078  0.17472264     0.11000
H536        H  0.16020676  0.87015395  0.08492781     0.11000
C537        C  0.23971415  0.80662879  0.26754471    -0.15100
C538        C  0.21007532  0.76066380  0.25837304     0.07000
C539        C  0.17855707  0.72692384  0.27942958    -0.15100
C540        C  0.17881925  0.73828685  0.30959436    -0.15100
C541        C  0.21115065  0.78330523  0.31908879     0.07000
C542        C  0.24054631  0.81773611  0.29773826    -0.15100
H543        H  0.26375095  0.83333798  0.25168435     0.11000
H544        H  0.15448063  0.69139952  0.27267338     0.11000
H545        H  0.15623544  0.71119524  0.32572921     0.11000
H546        H  0.26581264  0.85278810  0.30470696     0.11000
C547        C  0.22422335  0.78492305  0.05984449    -0.15100
C548        C  0.17939991  0.75157086  0.07085968     0.07000
C549        C  0.14403791  0.72413465  0.05052074    -0.15100
C550        C  0.15411552  0.72804215  0.01968729    -0.15100
C551        C  0.20002528  0.75862683  0.00887167     0.07000
C552        C  0.23460370  0.78808552  0.02909306    -0.15100
H553        H  0.25200308  0.80623820  0.07512499     0.11000
H554        H  0.10906222  0.69829741  0.05863004     0.11000
H555        H  0.12679921  0.70538233  0.00454295     0.11000
H556        H  0.27014558  0.81264294  0.02118813     0.11000
C557        C  0.13598649  0.49702284  0.15213023    -0.15100
C558        C  0.18235900  0.50591087  0.15345947     0.07000
C559        C  0.21897099  0.54621738  0.13972033    -0.15100
C560        C  0.21063192  0.58030269  0.12818011    -0.15100
C561        C  0.16593744  0.57561451  0.13195569     0.07000
C562        C  0.12777301  0.53205049  0.14123318    -0.15100
H563        H  0.10693808  0.46469431  0.16128352     0.11000
H564        H  0.25445198  0.55223147  0.13914228     0.11000
H565        H  0.24053941  0.61310859  0.12029457     0.11000
H566        H  0.09270259  0.52687278  0.14293392     0.11000
C567        C  0.11961253  0.24919908  0.16598169    -0.15100
C568        C  0.15855859  0.27660101  0.14646984     0.07000
C569        C  0.14904395  0.27817873  0.11591269    -0.15100
C570        C  0.10230177  0.25808287  0.10603656    -0.15100
C571        C  0.06357303  0.23234640  0.12579534     0.07000
C572        C  0.07308977  0.22650007  0.15565288    -0.15100
H573        H  0.12509458  0.24732713  0.18974013     0.11000
H574        H  0.17764638  0.29844035  0.10004645     0.11000
H575        H  0.09634442  0.26169606  0.08260456     0.11000
H576        H  0.04433057  0.20458325  0.17110299     0.11000
C577        C  0.13277635  0.27630358  0.37625110    -0.15100
C578        C  0.12673136  0.28095768  0.40720179     0.07000
C579        C  0.14261760  0.25869674  0.42717898    -0.15100
C580        C  0.16537986  0.23471191  0.41678518    -0.15100
C581        C  0.17505806  0.23367025  0.38600029     0.07000
C582        C  0.15763330  0.25422031  0.36589408    -0.15100
H583        H  0.12154102  0.29290380  0.35999341     0.11000
H584        H  0.13963614  0.26203302  0.45116045     0.11000
H585        H  0.17656838  0.21792240  0.43297913     0.11000
H586        H  0.16286231  0.25279357  0.34197920     0.11000
C587        C  0.18687733  0.43033713  0.03357291    -0.15100
C588        C  0.21016277  0.41710986  0.01234424     0.07000
C589        C  0.22917483  0.38967168  0.02182197    -0.15100
C590        C  0.22786061  0.37854142  0.05221854    -0.15100
C591        C  0.20660210  0.39371822  0.07346163     0.07000
C592        C  0.18495500  0.41853158  0.06392182    -0.15100
H593        H  0.17098222  0.45071228  0.02683166     0.11000
H594        H  0.24655192  0.37831611  0.00594962     0.11000
H595        H  0.24548852  0.36001077  0.05941271     0.11000
H596        H  0.16949583  0.43150015  0.08012683     0.11000
C597        C  0.22217333  0.39500972  0.31455231    -0.15100
C598        C  0.17791212  0.38518835  0.32550115     0.07000
C599        C  0.14235572  0.37715680  0.30520876    -0.15100
C600        C  0.15189748  0.38200554  0.27435964    -0.15100
C601        C  0.19741446  0.39595924  0.26352971     0.07000
C602        C  0.23201282  0.40080473  0.28373747    -0.15100
H603        H  0.25005291  0.40154661  0.32984034     0.11000
H604        H  0.10780297  0.36929586  0.31331882     0.11000
H605        H  0.12468603  0.37785588  0.25918906     0.11000
H606        H  0.26728779  0.41096695  0.27576101     0.11000
C607        C  0.21290885  0.59103351  0.37293386    -0.15100
C608        C  0.16815716  0.55173629  0.37857042     0.07000
C609        C  0.13087498  0.55850366  0.38763949    -0.15100
C610        C  0.14037313  0.60279847  0.39672158    -0.15100
C611        C  0.18707897  0.63994409  0.39647934     0.07000
C612        C  0.22261796  0.63467317  0.38271254    -0.15100
H613        H  0.24202751  0.58689169  0.36516292     0.11000
H614        H  0.09579626  0.52897825  0.39114186     0.11000
H615        H  0.11219607  0.60712861  0.40612015     0.11000
H616        H  0.25841834  0.66379744  0.38101554     0.11000
C617        C  0.37606784  0.74627034  0.37683410    -0.15100
C618        C  0.38261311  0.79155697  0.37858559     0.07000
C619        C  0.42686674  0.82868988  0.38652373    -0.15100
C620        C  0.46063815  0.81919474  0.39801417    -0.15100
C621        C  0.44974092  0.77259988  0.40161826     0.07000
C622        C  0.40877317  0.73662027  0.38921711    -0.15100
H623        H  0.34268839  0.71718475  0.37002830     0.11000
H624        H  0.43308295  0.86401227  0.38745414     0.11000
H625        H  0.49323497  0.84758023  0.40637753     0.11000
H626        H  0.40096182  0.70068496  0.39051134     0.11000
C627        C  0.70842455  0.85141218  0.43080753    -0.15100
C628        C  0.68743409  0.81225355  0.41191084     0.07000
C629        C  0.69369087  0.82109803  0.38070952    -0.15100
C630        C  0.71588088  0.86728995  0.36896753    -0.15100
C631        C  0.73523889  0.90626092  0.38790624     0.07000
C632        C  0.73289253  0.89753751  0.41899876    -0.15100
H633        H  0.70391206  0.84633867  0.45492973     0.11000
H634        H  0.67805135  0.79230146  0.36530337     0.11000
H635        H  0.71842399  0.87266608  0.34491356     0.11000
H636        H  0.74901796  0.92654474  0.43425433     0.11000
C637        C  0.38201898  0.59388355  0.37296981    -0.15100
C638        C  0.41994860  0.58709056  0.37925309     0.07000
C639        C  0.41080493  0.54199933  0.38692267    -0.15100
C640        C  0.36484944  0.50708977  0.39462807    -0.15100
C641        C  0.32853310  0.51760214  0.39431553     0.07000
C642        C  0.33654359  0.55974594  0.38146433    -0.15100
H643        H  0.38825301  0.62809547  0.36616173     0.11000
H644        H  0.43940941  0.53562615  0.39106136     0.11000
H645        H  0.35855219  0.47384305  0.40360575     0.11000
H646        H  0.30821771  0.56743198  0.37996046     0.11000
C647        C  0.39383322  0.63716136  0.14836468    -0.15100
C648        C  0.43412626  0.64395986  0.16293333     0.07000
C649        C  0.44789307  0.61008351  0.16015308    -0.15100
C650        C  0.41846868  0.56757474  0.14648695    -0.15100
C651        C  0.37493255  0.55846963  0.13573472     0.07000
C652        C  0.36538758  0.59535328  0.13385238    -0.15100
H653        H  0.38296156  0.66298919  0.14946795     0.11000
H654        H  0.47995073  0.61518920  0.17013066     0.11000
H655        H  0.42696249  0.54000198  0.14785979     0.11000
H656        H  0.33250343  0.58948413  0.12488935     0.11000
C657        C  0.72113205  0.83678502  0.17139353    -0.15100
C658        C  0.69309914  0.84858336  0.15379936     0.07000
C659        C  0.69318331  0.84117308  0.12265796    -0.15100
C660        C  0.71446908  0.81699264  0.11038273    -0.15100
C661        C  0.73977084  0.80256183  0.12826830     0.07000
C662        C  0.74506868  0.81525233  0.15867014    -0.15100
H663        H  0.72097413  0.84025448  0.19553644     0.11000
H664        H  0.67104223  0.84816558  0.10832332     0.11000
H665        H  0.71094084  0.80928404  0.08671703     0.11000
H666        H  0.76663589  0.80718775  0.17280716     0.11000
C667        C  0.59440850  0.74737435  0.28137661    -0.15100
C668        C  0.56362198  0.76219779  0.27160799     0.07000
C669        C  0.54561074  0.78143487  0.29238751    -0.15100
C670        C  0.55586994  0.78323999  0.32276297    -0.15100
C671        C  0.58351827  0.76499156  0.33285321     0.07000
C672        C  0.60365435  0.74804300  0.31194435    -0.15100
H673        H  0.60893868  0.73276943  0.26572198     0.11000
H674        H  0.52238024  0.79384328  0.28523433     0.11000
H675        H  0.53901077  0.79519842  0.33863923     0.11000
H676        H  0.62426683  0.73283414  0.31954054     0.11000
C677        C  0.52034422  0.71819902  0.07303487    -0.15100
C678        C  0.55285149  0.76248594  0.08364707     0.07000
C679        C  0.57775672  0.79966106  0.06279248    -0.15100
C680        C  0.57000000  0.79291602  0.03207149    -0.15100
C681        C  0.53706820  0.74882643  0.02140639     0.07000
C682        C  0.51248043  0.71144985  0.04222406    -0.15100
H683        H  0.50018035  0.68916242  0.08855037     0.11000
H684        H  0.60303814  0.83438030  0.07025235     0.11000
H685        H  0.58984439  0.82222103  0.01669623     0.11000
H686        H  0.48703732  0.67682637  0.03471679     0.11000
C687        C  0.41116291  0.83764170  0.13928534    -0.15100
C688        C  0.42564736  0.80479687  0.13500244     0.07000
C689        C  0.39159961  0.75781332  0.13064307    -0.15100
C690        C  0.34424913  0.74222913  0.13699534    -0.15100
C691        C  0.33048259  0.77431731  0.14555264     0.07000
C692        C  0.36342369  0.82242999  0.14421084    -0.15100
H693        H  0.43692755  0.87405668  0.14275145     0.11000
H694        H  0.40246487  0.73230868  0.12690736     0.11000
H695        H  0.31889966  0.70504141  0.13691750     0.11000
H696        H  0.35298207  0.84773007  0.15002397     0.11000
C697        C  0.82910128  0.57107503  0.08076692    -0.15100
C698        C  0.84296677  0.57236451  0.05054249     0.07000
C699        C  0.82884314  0.59476014  0.02960142    -0.15100
C700        C  0.80294783  0.61627556  0.03866438    -0.15100
C701        C  0.79322342  0.61907010  0.06926135     0.07000
C702        C  0.80567545  0.59490206  0.09002501    -0.15100
H703        H  0.83752573  0.55259630  0.09744045     0.11000
H704        H  0.83731389  0.59504829  0.00600724     0.11000
H705        H  0.79403133  0.63410667  0.02186085     0.11000
H706        H  0.79968642  0.59679826  0.11381634     0.11000
C707        C  0.05216765  0.50514737  0.50385992    -0.15100
C708        C  0.02466073  0.51541158  0.48466720     0.07000
C709        C  0.02473520  0.50447846  0.45410186    -0.15100
C710        C  0.04511355  0.47819020  0.44414108    -0.15100
C711        C  0.06992260  0.46538848  0.46368505     0.07000
C712        C  0.07546297  0.48165897  0.49332546    -0.15100
H713        H  0.05208263  0.51143763  0.02767093     0.11000
H714        H  0.00297785  0.51025333  0.43863984     0.11000
H715        H  0.04169452  0.46797933  0.42089693     0.11000
H716        H  0.09684857  0.47503212  0.50858521     0.11000
C717        C  0.81647575  0.19566962  0.27893065    -0.15100
C718        C  0.82982458  0.23368265  0.29806008     0.07000
C719        C  0.81539987  0.22344135  0.32845513    -0.15100
C720        C  0.79360324  0.17701586  0.33992980    -0.15100
C721        C  0.78340102  0.13901569  0.32111650     0.07000
C722        C  0.79218087  0.14920410  0.29005779    -0.15100
H723        H  0.82519467  0.20197235  0.25521619     0.11000
H724        H  0.82243959  0.25163590  0.34356025     0.11000
H725        H  0.78889220  0.17132888  0.36400449     0.11000
H726        H  0.78631422  0.12155643  0.27476005     0.11000
C727        C  0.06452125  0.56260491  0.24541146    -0.15100
C728        C  0.06441225  0.56986424  0.21427489     0.07000
C729        C  0.04225917  0.53000454  0.19629898    -0.15100
C730        C  0.02080791  0.48440552  0.20887508    -0.15100
C731        C  0.01683743  0.47697717  0.24020945     0.07000
C732        C  0.03972667  0.51703677  0.25824399    -0.15100
H733        H  0.08333299  0.59229967  0.25987039     0.11000
H734        H  0.04205421  0.53426606  0.17226889     0.11000
H735        H  0.00398572  0.45494045  0.19407096     0.11000
H736        H  0.03717176  0.51310696  0.28245894     0.11000
C737        C  0.84156084  0.37787911  0.37267797    -0.15100
C738        C  0.86640534  0.41477168  0.35158094     0.07000
C739        C  0.89997703  0.45884399  0.36198561    -0.15100
C740        C  0.90796961  0.46617124  0.39264221    -0.15100
C741        C  0.88272035  0.42962549  0.41381710     0.07000
C742        C  0.84967812  0.38522773  0.40350492    -0.15100
H743        H  0.81578289  0.34324974  0.36537065     0.11000
H744        H  0.92012845  0.48781331  0.34643234     0.11000
H745        H  0.93374877  0.50090984  0.39979547     0.11000
H746        H  0.82932197  0.35660138  0.41925689     0.11000
C747        C  0.88983423  0.45393372  0.15320379    -0.15100
C748        C  0.91243917  0.43006803  0.16298665     0.07000
C749        C  0.92892139  0.41009062  0.14174061    -0.15100
C750        C  0.92066339  0.41169504  0.11123634    -0.15100
C751        C  0.89456506  0.43208574  0.10172105     0.07000
C752        C  0.88045098  0.45445506  0.12275475    -0.15100
H753        H  0.87613198  0.46879130  0.16928650     0.11000
H754        H  0.94598561  0.39104065  0.14898634     0.11000
H755        H  0.93208648  0.39454713  0.09536707     0.11000
H756        H  0.86087551  0.47107691  0.11571700     0.11000
C757        C  0.78512557  0.59495058  0.32928291    -0.15100
C758        C  0.82504901  0.62058448  0.31014850     0.07000
C759        C  0.81710843  0.61934109  0.27909074    -0.15100
C760        C  0.77086653  0.59663049  0.26795452    -0.15100
C761        C  0.73111598  0.57234531  0.28726288     0.07000
C762        C  0.73919779  0.57039239  0.31797109    -0.15100
H763        H  0.78935830  0.59551986  0.35335128     0.11000
H764        H  0.84645016  0.63873503  0.26352027     0.11000
H765        H  0.76614192  0.59737776  0.24403253     0.11000
H766        H  0.70974615  0.54997685  0.33332702     0.11000
C767        C  0.48075937  0.49971402  0.19753954    -0.15100
C768        C  0.48948708  0.50684891  0.22848883     0.07000
C769        C  0.45010801  0.49253669  0.24800190    -0.15100
C770        C  0.40386869  0.47034987  0.23721156    -0.15100
C771        C  0.39500289  0.45959095  0.20670143     0.07000
C772        C  0.43421830  0.47547615  0.18691684    -0.15100
H773        H  0.50976707  0.50993789  0.18169189     0.11000
H774        H  0.45502859  0.49668623  0.27198344     0.11000
H775        H  0.37474073  0.46097317  0.25286057     0.11000
H776        H  0.42886184  0.46996687  0.16305132     0.11000
C777        C  0.71402872  0.42146694  0.20221849    -0.15100
C778        C  0.72040874  0.46614591  0.20726799     0.07000
C779        C  0.76370057  0.50133823  0.21795279    -0.15100
C780        C  0.79533823  0.48931831  0.22982935    -0.15100
C781        C  0.78354891  0.44228208  0.23056200     0.07000
C782        C  0.74471560  0.40911706  0.21479380    -0.15100
H783        H  0.68132979  0.39406666  0.19324044     0.11000
H784        H  0.76993378  0.53631529  0.22121439     0.11000
H785        H  0.82661828  0.51572689  0.24071941     0.11000
H786        H  0.73671164  0.37312276  0.21371922     0.11000
C787        C  0.39862847  0.23335191  0.07721447    -0.15100
C788        C  0.40317110  0.23839334  0.04583121     0.07000
C789        C  0.38499492  0.19746007  0.02882823    -0.15100
C790        C  0.36212093  0.15269464  0.04260975    -0.15100
C791        C  0.35438465  0.14730519  0.07391611     0.07000
C792        C  0.37365927  0.18854721  0.09100028    -0.15100
H793        H  0.41406216  0.26410871  0.09106645     0.11000
H794        H  0.38853473  0.20021081  0.50467960     0.11000
H795        H  0.34742046  0.12224766  0.02852127     0.11000
H796        H  0.36792082  0.18610846  0.11510328     0.11000
C797        C  0.69921710  0.49797573  0.47770395    -0.15100
C798        C  0.66577977  0.45009204  0.97730285     0.07000
C799        C  0.67819916  0.41867526  0.96531437    -0.15100
C800        C  0.72506604  0.43401356  0.95763728    -0.15100
C801        C  0.75995962  0.48004813  0.46378299     0.07000
C802        C  0.74646129  0.51295956  0.47094679    -0.15100
H803        H  0.68968695  0.52286481  0.48606236     0.11000
H804        H  0.65225208  0.38180246  0.96382409     0.11000
H805        H  0.73486259  0.40812276  0.95209413     0.11000
H806        H  0.77282796  0.54871424  0.47556273     0.11000
C807        C  0.46502924  0.48368983  0.45316061    -0.15100
C808        C  0.45460772  0.47106979  0.48375309     0.07000
C809        C  0.46512117  0.50730952  0.50420520    -0.15100
C810        C  0.48733635  0.55449214  0.49461043    -0.15100
C811        C  0.50200718  0.56720693  0.46452261     0.07000
C812        C  0.48966102  0.53109534  0.44386199    -0.15100
H813        H  0.45776352  0.45718891  0.43665736     0.11000
H814        H  0.45839742  0.49924666  0.02799975     0.11000
H815        H  0.49381009  0.58122983  0.51081340     0.11000
H816        H  0.49872738  0.53964765  0.42031714     0.11000
C817        C  0.56938608  0.47376998  0.10112779    -0.15100
C818        C  0.54318980  0.42734507  0.09187765     0.07000
C819        C  0.51493680  0.39195311  0.11310233    -0.15100
C820        C  0.51520688  0.40252453  0.14343924    -0.15100
C821        C  0.54430766  0.44844305  0.15285613     0.07000
C822        C  0.57026890  0.48414882  0.13143119    -0.15100
H823        H  0.59084904  0.50167672  0.08516975     0.11000
H824        H  0.49350580  0.35593165  0.10632337     0.11000
H825        H  0.49537829  0.37450191  0.15968285     0.11000
H826        H  0.59303602  0.51986754  0.13838590     0.11000
C827        C  0.48288940  0.39369553  0.38325021    -0.15100
C828        C  0.51791416  0.42077137  0.40381816     0.07000
C829        C  0.56371166  0.45218374  0.39330690    -0.15100
C830        C  0.57493724  0.45438979  0.36272255    -0.15100
C831        C  0.54027424  0.42581435  0.34225273     0.07000
C832        C  0.49384569  0.39655680  0.35265708    -0.15100
H833        H  0.44734769  0.36894034  0.39105889     0.11000
H834        H  0.59132242  0.47271458  0.40888791     0.11000
H835        H  0.61096157  0.47777664  0.35514223     0.11000
H836        H  0.46651326  0.37444492  0.33735021     0.11000
C837        C  0.38426801  0.14684914  0.28128285    -0.15100
C838        C  0.40775527  0.13355474  0.30161589     0.07000
C839        C  0.41076649  0.14854660  0.33142478    -0.15100
C840        C  0.38617450  0.17117278  0.34120148    -0.15100
C841        C  0.35976293  0.18169555  0.32114751     0.07000
C842        C  0.36257663  0.17225272  0.29058213    -0.15100
H843        H  0.38253877  0.13731856  0.25798178     0.11000
H844        H  0.43092513  0.14137200  0.34739180     0.11000
H845        H  0.38400844  0.17631895  0.36502038     0.11000
H846        H  0.34173414  0.17818830  0.27444189     0.11000
C847        C  0.69995799  0.17202245  0.22931509    -0.15100
C848        C  0.66317142  0.18179186  0.23094607     0.07000
C849        C  0.66799770  0.22177317  0.21665818    -0.15100
C850        C  0.71160556  0.25536214  0.20494808    -0.15100
C851        C  0.75104980  0.25051145  0.20986085     0.07000
C852        C  0.74413065  0.20647672  0.21829797    -0.15100
H853        H  0.69574956  0.13997701  0.23903448     0.11000
H854        H  0.63890342  0.22838265  0.21638076     0.11000
H855        H  0.71596604  0.28852547  0.19728605     0.11000
H856        H  0.77383133  0.20125743  0.22077609     0.11000
C857        C  0.48333970  0.92719003  0.26687322    -0.15100
C858        C  0.46398228  0.94727817  0.24780250     0.07000
C859        C  0.46630445  0.94081298  0.21671148    -0.15100
C860        C  0.49090639  0.91918863  0.20513662    -0.15100
C861        C  0.51198209  0.90109693  0.22423743     0.07000
C862        C  0.50603561  0.90378678  0.25535159    -0.15100
H863        H  0.48315204  0.93185087  0.29089694     0.11000
H864        H  0.45234391  0.95574786  0.20112736     0.11000
H865        H  0.49297483  0.91606025  0.18108905     0.11000
H866        H  0.51999155  0.88867537  0.27084604     0.11000
C867        C  0.48106096  0.27055821  0.23149055    -0.15100
C868        C  0.52794003  0.30741482  0.23094145     0.07000
C869        C  0.56331304  0.30082103  0.21821999    -0.15100
C870        C  0.55308233  0.25636825  0.20983843    -0.15100
C871        C  0.50801763  0.21768441  0.21587186     0.07000
C872        C  0.47107656  0.22554571  0.22385601    -0.15100
H873        H  0.45303851  0.27577760  0.24011649     0.11000
H874        H  0.59932500  0.32959285  0.21627299     0.11000
H875        H  0.58191570  0.25137693  0.20272510     0.11000
H876        H  0.43579021  0.19652731  0.22760152     0.11000
C877        C  0.73497262  0.13105579  0.07930887    -0.15100
C878        C  0.72645390  0.12254282  0.04851169     0.07000
C879        C  0.76599102  0.14093545  0.02880571    -0.15100
C880        C  0.81241316  0.16549847  0.03961921    -0.15100
C881        C  0.82099202  0.17053906  0.07064635     0.07000
C882        C  0.78124972  0.15351831  0.09022918    -0.15100
H883        H  0.70560719  0.11997235  0.09503445     0.11000
H884        H  0.76094173  0.13729624  0.00482455     0.11000
H885        H  0.84163012  0.17793220  0.02373359     0.11000
H886        H  0.78597572  0.15613336  0.11426829     0.11000
C887        C  0.47712994  0.16888637  0.98556895    -0.15100
C888        C  0.52252691  0.17884119  0.99317993     0.07000
C889        C  0.56163756  0.22097972  0.48353506    -0.15100
C890        C  0.55558403  0.25469933  0.46909660    -0.15100
C891        C  0.51017469  0.24853948  0.46670824     0.07000
C892        C  0.47093583  0.20396354  0.97240844    -0.15100
H893        H  0.44663555  0.13520958  0.99130300     0.11000
H894        H  0.59697266  0.22834315  0.48787523     0.11000
H895        H  0.58670756  0.28817269  0.46378442     0.11000
H896        H  0.43570798  0.19759498  0.96910710     0.11000
C897        C  0.48202055  0.94619275  0.45119387    -0.15100
C898        C  0.48764393  0.94542576  0.48250923     0.07000
C899        C  0.44616114  0.91880632  0.50020832    -0.15100
C900        C  0.40114264  0.89549622  0.48745321    -0.15100
C901        C  0.39527774  0.89927390  0.45658075     0.07000
C902        C  0.43659995  0.92416323  0.43853837    -0.15100
H903        H  0.51254845  0.96629025  0.43661581     0.11000
H904        H  0.44842575  0.91757412  0.02437930     0.11000
H905        H  0.37055935  0.87458295  0.50188458     0.11000
H906        H  0.43378526  0.92608781  0.41447883     0.11000
C907        C  0.56448300  0.06229631  0.12276656    -0.15100
C908        C  0.52994257  0.05984693  0.10331326     0.07000
C909        C  0.48503605  0.04665360  0.11486981    -0.15100
C910        C  0.47633864  0.04076846  0.14579466    -0.15100
C911        C  0.51219479  0.04732866  0.16546996     0.07000
C912        C  0.55552801  0.05568656  0.15368456    -0.15100
H913        H  0.59924775  0.07163655  0.11417828     0.11000
H914        H  0.45784324  0.04420424  0.10030870     0.11000
H915        H  0.44240495  0.03388944  0.15451858     0.11000
H916        H  0.58360184  0.06093590  0.16843227     0.11000
C917        C  0.57084076  0.05292063  0.39273601    -0.15100
C918        C  0.54421020  0.06324492  0.41303928     0.07000
C919        C  0.51761937  0.08231483  0.40244161    -0.15100
C920        C  0.51975214  0.09337099  0.37196473    -0.15100
C921        C  0.54809259  0.08496060  0.35176179     0.07000
C922        C  0.57244754  0.06329571  0.36225056    -0.15100
H923        H  0.59205546  0.03862125  0.40075620     0.11000
H924        H  0.49774966  0.09136021  0.41789811     0.11000
H925        H  0.49979650  0.10923429  0.36427090     0.11000
H926        H  0.59398547  0.05594681  0.34712160     0.11000
C927        C  0.78145570  0.27860686  0.99506965    -0.15100
C928        C  0.76711033  0.31222594  0.99480356     0.07000
C929        C  0.72706511  0.30321311  0.47895730    -0.15100
C930        C  0.69832450  0.25884994  0.46735333    -0.15100
C931        C  0.70836918  0.22283430  0.47280433     0.07000
C932        C  0.75236549  0.23419561  0.98381846    -0.15100
H933        H  0.81352764  0.28540770  0.00589118     0.11000
H934        H  0.71661548  0.32937920  0.47702065     0.11000
H935        H  0.66501020  0.25090193  0.45790861     0.11000
H936        H  0.76120105  0.20725134  0.98782456     0.11000
O937        O  0.51257813  0.05998496  0.55133452    -0.83600
C938        C  0.66889279  0.17685620  0.98140476     0.95800
O939        O  0.63599834  0.17709939  0.49602840    -0.72700
O940        O  0.56141605  0.15604047  0.52754368    -0.76300
Al941      Al  0.60996987  0.14040232  0.53059123     1.49000
C942        C  0.53109145  0.14412961  0.50747080     0.91000
O943        O  0.52040164  0.04640965  0.96492197    -0.82500
O944        O  0.57242536  0.00528294  0.98493524    -0.76100
Al945      Al  0.52142559  0.05525566  0.00846901     1.90100
O946        O  0.59585359  0.08192580  0.95170834    -0.75100
O947        O  0.65373069  0.07078083  0.52171645    -0.75000
O948        O  0.67121257  0.13964888  0.97976112    -0.80600
O949        O  0.66610026  0.13846601  0.53883190    -0.78800
O950        O  0.58370174  0.08992528  0.50877860    -1.15000
O951        O  0.58521160  0.10603301  0.56611794    -0.74200
C952        C  0.54294655  0.07566468  0.57187970     0.96500
C953        C  0.55335200  0.06378570  0.94499819     0.92900
Al954      Al  0.62029682  0.07487569  0.98679160     1.55600
O955        O  0.51193176  0.10396516  0.49716840    -0.78800
C956        C  0.67879376  0.10829624  0.53650487     0.97100
C957        C  0.53146769  0.98310262  0.99753487     0.92000
O958        O  0.52440620  0.00228887  0.01932068    -0.84100
O959        O  0.42576057  0.07718015  0.77810248    -0.83600
C960        C  0.61963707  0.15121512  0.74737751     0.95800
O961        O  0.60366821  0.16811509  0.76631419    -0.72700
O962        O  0.54256135  0.17894903  0.73762267    -0.76300
Al963      Al  0.53998928  0.15151359  0.77480591     1.49000
C964        C  0.50573280  0.17431566  0.72620027     0.91000
O965        O  0.48261649  0.07297046  0.70394708    -0.82500
O966        O  0.48853878  0.01306987  0.77765526    -0.76100
Al967      Al  0.45705172  0.07389304  0.74106161     1.90100
O968        O  0.52606717  0.04270486  0.71774050    -0.75100
O969        O  0.56320638  0.07871303  0.79996581    -0.75000
O970        O  0.59737952  0.10890610  0.74127621    -0.80600
O971        O  0.53823348  0.12679379  0.81274390    -0.78800
O972        O  0.51306873  0.09611115  0.75845269    -1.15000
O973        O  0.48278180  0.14917644  0.78698089    -0.74200
C974        C  0.43996886  0.11762919  0.78949991     0.96500
C975        C  0.50678194  0.05432027  0.69746642     0.92900
Al976      Al  0.54173947  0.06294273  0.75931309     1.55600
O977        O  0.46706622  0.13564924  0.72898973    -0.78800
C978        C  0.55053595  0.09771694  0.81985251     0.97100
C979        C  0.45875712  0.98748760  0.75936169     0.92000
O980        O  0.43714762  0.00502771  0.74568029    -0.84100
O981        O  0.55570740  0.44599776  0.53963587    -0.83600
C982        C  0.50616426  0.29044708  0.97086734     0.95800
O983        O  0.54206712  0.32567918  0.48042651    -0.72700
O984        O  0.60146490  0.39782707  0.50842070    -0.76300
Al985      Al  0.53754103  0.35033678  0.51693547     1.49000
C986        C  0.61859790  0.43224487  0.49032801     0.91000
O987        O  0.52419842  0.44089327  0.95575641    -0.82500
O988        O  0.43419032  0.38885347  0.98085458    -0.76100
Al989      Al  0.53711029  0.43851858  0.99833420     1.90100
O990        O  0.48405478  0.36645058  0.94299565    -0.75100
O991        O  0.42264932  0.30944692  0.01726096    -0.75000
O992        O  0.46679409  0.28914434  0.97173450    -0.80600
O993        O  0.47933476  0.29523300  0.52961492    -0.78800
O994        O  0.51038429  0.37704011  0.99864749    -1.15000
O995        O  0.53452037  0.37427482  0.55430373    -0.74200
C996        C  0.54486556  0.41545517  0.56030230     0.96500
C997        C  0.50832117  0.40921788  0.93592363     0.92900
Al998      Al  0.45565151  0.34134035  0.98000061     1.55600
O999        O  0.59538460  0.45093324  0.48289616    -0.78800
C1000       C  0.43639009  0.28438552  0.53105186     0.97100
C1001       C  0.45236013  0.42712946  0.99510721     0.92000
O1002       O  0.48157276  0.43282798  0.01432343    -0.84100
O1003       O  0.65760367  0.55002425  0.76103753    -0.83600
C1004       C  0.54099254  0.35297257  0.74330293     0.95800
O1005       O  0.57489265  0.37220038  0.76093812    -0.72700
O1006       O  0.64655590  0.43207118  0.72976984    -0.76300
Al1007     Al  0.62030272  0.43678028  0.76603068     1.49000
C1008       C  0.67837934  0.46788245  0.71629514     0.91000
O1009       O  0.59849170  0.48451939  0.69029861    -0.82500
O1010       O  0.52927938  0.48427386  0.76153410    -0.76100
Al1011     Al  0.62402058  0.51441472  0.72582055     1.90100
O1012       O  0.52410229  0.44069468  0.70532029    -0.75100
O1013       O  0.52212735  0.41371969  0.79035997    -0.75000
O1014       O  0.51986083  0.37341243  0.73504513    -0.80600
O1015       O  0.59544730  0.43999763  0.80345213    -0.78800
O1016       O  0.59060518  0.46043105  0.74690659    -1.15000
O1017       O  0.67418666  0.49589142  0.77538630    -0.74200
C1018       C  0.68435939  0.53822482  0.77464194     0.96500
C1019       C  0.55571769  0.45816667  0.68457023     0.92900
Al1020     Al  0.52817695  0.43037176  0.74818359     1.55600
O1021       O  0.67739642  0.50576249  0.71626759    -0.78800
C1022       C  0.55310661  0.42639371  0.81035469     0.97100
C1023       C  0.53429862  0.51227763  0.74106295     0.92000
O1024       O  0.57401441  0.53275622  0.72705831    -0.84100
O1025       O  0.88647682  0.30791362  0.77265515    -0.83600
C1026       C  0.81173927  0.42713680  0.74679421     0.95800
O1027       O  0.79185964  0.39023293  0.76250855    -0.72700
O1028       O  0.78624979  0.32215327  0.73324745    -0.76300
Al1029     Al  0.80977489  0.34520708  0.77110417     1.49000
C1030       C  0.79273513  0.29163770  0.72111409     0.91000
O1031       O  0.89305929  0.37325173  0.70013750    -0.82500
O1032       O  0.95191418  0.43503600  0.77328732    -0.76100
Al1033     Al  0.89124350  0.34440099  0.73643970     1.90100
O1034       O  0.91979284  0.44562465  0.71567808    -0.75100
O1035       O  0.88469440  0.43901752  0.80000064    -0.75000
O1036       O  0.85529654  0.44966815  0.74337419    -0.80600
O1037       O  0.82910468  0.36650919  0.81020347    -0.78800
O1038       O  0.86737488  0.37615388  0.75561183    -1.15000
O1039       O  0.81332583  0.29135644  0.78278688    -0.74200
C1040       C  0.84540830  0.28103423  0.78472083     0.96500
C1041       C  0.90867785  0.41607142  0.69468852     0.92900
Al1042     Al  0.90075615  0.43796609  0.75819954     1.55600
O1043       O  0.83136659  0.29249624  0.72423135    -0.78800
C1044       C  0.85940678  0.40656201  0.81887184     0.97100
C1045       C  0.97721643  0.43173302  0.75355456     0.92000
O1046       O  0.95958298  0.39292375  0.74008599    -0.84100
O1047       O  0.90803551  0.43210939  0.54909104    -0.83600
C1048       C  0.79983148  0.48356228  0.97963066     0.95800
O1049       O  0.79075775  0.46697507  0.50584763    -0.72700
O1050       O  0.78295768  0.38682075  0.51272936    -0.76300
Al1051     Al  0.81905693  0.44578840  0.53249481     1.49000
C1052       C  0.79552075  0.35683430  0.51001329     0.91000
O1053       O  0.87354431  0.40817075  0.96651047    -0.82500
O1054       O  0.96192461  0.53266105  0.00004998    -0.76100
Al1055     Al  0.89014140  0.42042797  0.00831270     1.90100
O1056       O  0.90708211  0.48300517  0.95317794    -0.75100
O1057       O  0.88704237  0.55189846  0.01564791    -0.75000
O1058       O  0.84020235  0.49994127  0.96771906    -0.80600
O1059       O  0.84728487  0.50308369  0.55289010    -0.78800
O1060       O  0.86949919  0.46097281  0.50949647    -1.15000
O1061       O  0.83957304  0.42248553  0.56506045    -0.74200
C1062       C  0.88022952  0.42874430  0.57031833     0.96500
C1063       C  0.88808363  0.44024429  0.94625757     0.92900
Al1064     Al  0.89732477  0.51302550  0.98662037     1.55600
O1065       O  0.83447561  0.36593990  0.51969527    -0.78800
C1066       C  0.86229466  0.54217982  0.53988588     0.97100
C1067       C  0.97768625  0.50456901  0.99621942     0.92000
O1068       O  0.95041834  0.46162211  0.99737640    -0.84100
O1069       O  0.57674016  0.76098926  0.71889563    -0.83600
C1070       C  0.46687000  0.81170617  0.65090450     0.95800
O1071       O  0.45953811  0.79821656  0.67783253    -0.72700
O1072       O  0.45160217  0.71755443  0.68320330    -0.76300
Al1073     Al  0.48816591  0.77554947  0.70346356     1.49000
C1074       C  0.46358092  0.68730641  0.67925665     0.91000
O1075       O  0.54322987  0.73963440  0.63602221    -0.82500
O1076       O  0.62952290  0.86386062  0.67038422    -0.76100
Al1077     Al  0.55914003  0.75064222  0.67793147     1.90100
O1078       O  0.57599580  0.81458683  0.62353511    -0.75100
O1079       O  0.55297062  0.88093737  0.68649685    -0.75000
O1080       O  0.50670191  0.82733660  0.63833561    -0.80600
O1081       O  0.51774354  0.83240052  0.72459148    -0.78800
O1082       O  0.53807094  0.79081501  0.67985817    -1.15000
O1083       O  0.50805714  0.75022949  0.73496058    -0.74200
C1084       C  0.54893937  0.75728155  0.74018685     0.96500
C1085       C  0.55770274  0.77217563  0.61614465     0.92900
Al1086     Al  0.56465258  0.84295121  0.65712342     1.55600
O1087       O  0.50274658  0.69536636  0.68815797    -0.78800
C1088       C  0.53077693  0.87129069  0.71178047     0.97100
C1089       C  0.64619977  0.83649396  0.66637042     0.92000
O1090       O  0.61971801  0.79329909  0.66762435    -0.84100
O1091       O  0.55773030  0.64313297  0.94154779    -0.83600
C1092       C  0.48049244  0.76021544  0.91754271     0.95800
O1093       O  0.46272599  0.72514080  0.93499935    -0.72700
O1094       O  0.45598530  0.65735235  0.90405559    -0.76300
Al1095     Al  0.48070321  0.67947286  0.94168911     1.49000
C1096       C  0.46210409  0.62712099  0.89114246     0.91000
O1097       O  0.56313813  0.70820045  0.86979992    -0.82500
O1098       O  0.62109596  0.76967458  0.94352985    -0.76100
Al1099     Al  0.56149333  0.67941231  0.90583879     1.90100
O1100       O  0.59071324  0.78055572  0.88549739    -0.75100
O1101       O  0.55318559  0.77368654  0.96966999    -0.75000
O1102       O  0.52374135  0.78259337  0.91217119    -0.80600
O1103       O  0.50172312  0.69991372  0.98033496    -0.78800
O1104       O  0.53760673  0.71071723  0.92537586    -1.15000
O1105       O  0.48431610  0.62508695  0.95197061    -0.74200
C1106       C  0.51679592  0.61521213  0.95315492     0.96500
C1107       C  0.57967050  0.75110459  0.86446511     0.92900
Al1108     Al  0.57018288  0.77243743  0.92782148     1.55600
O1109       O  0.50077388  0.62756994  0.89357744    -0.78800
C1110       C  0.53012845  0.74070117  0.98875590     0.97100
C1111       C  0.64700676  0.76666170  0.92408314     0.92000
O1112       O  0.62976746  0.72834887  0.90995969    -0.84100
O1113       O  0.08773199  0.40981964  0.93856035    -0.83600
C1114       C  0.28301381  0.48659849  0.90873005     0.95800
O1115       O  0.26575526  0.50304619  0.92702564    -0.72700
O1116       O  0.20392645  0.51305276  0.89867452    -0.76300
Al1117     Al  0.20193109  0.48523829  0.93567208     1.49000
C1118       C  0.16679172  0.50836578  0.88769194     0.91000
O1119       O  0.14564576  0.40833401  0.86397147    -0.82500
O1120       O  0.15134456  0.34677576  0.93696264    -0.76100
Al1121     Al  0.11946836  0.40783984  0.90127815     1.90100
O1122       O  0.18997049  0.37891454  0.87765108    -0.75100
O1123       O  0.22496303  0.41168570  0.96030296    -0.75000
O1124       O  0.26105735  0.44441693  0.90215040    -0.80600
O1125       O  0.20074430  0.46011921  0.97356940    -0.78800
O1126       O  0.17553626  0.43020901  0.91886074    -1.15000
O1127       O  0.14453254  0.48168437  0.94816773    -0.74200
C1128       C  0.10185934  0.44988109  0.95059101     0.96500
C1129       C  0.17083057  0.39077280  0.85743422     0.92900
Al1130     Al  0.20466224  0.39751293  0.91938818     1.55600
O1131       O  0.12848106  0.46939231  0.89014384    -0.78800
C1132       C  0.21261101  0.43058327  0.98043597     0.97100
C1133       C  0.12180088  0.32143261  0.91849841     0.92000
O1134       O  0.10029589  0.33907651  0.90485069    -0.84100
O1135       O  0.18016788  0.39242714  0.71148969    -0.83600
C1136       C  0.33460472  0.51137703  0.64094069     0.95800
O1137       O  0.29990326  0.50952760  0.65448650    -0.72700
O1138       O  0.22559815  0.48697068  0.68649446    -0.76300
Al1139     Al  0.27582805  0.47366369  0.68954894     1.49000
C1140       C  0.19397662  0.47303972  0.66712641     0.91000
O1141       O  0.18643156  0.37574317  0.62565263    -0.82500
O1142       O  0.24187212  0.33922780  0.64507432    -0.76100
Al1143     Al  0.18869857  0.38631398  0.66896788     1.90100
O1144       O  0.26120928  0.41445560  0.61077310    -0.75100
O1145       O  0.32292139  0.40678966  0.68002096    -0.75000
O1146       O  0.33757417  0.47462429  0.63838283    -0.80600
O1147       O  0.33313398  0.47356275  0.69749184    -0.78800
O1148       O  0.25065594  0.42292115  0.66823425    -1.15000
O1149       O  0.25266569  0.44012237  0.72565063    -0.74200
C1150       C  0.21056233  0.40974652  0.73186666     0.96500
C1151       C  0.21814709  0.39444380  0.60503574     0.92900
Al1152     Al  0.28787923  0.40917174  0.64568487     1.55600
O1153       O  0.17604113  0.43273898  0.65708299    -0.78800
C1154       C  0.34716382  0.44442047  0.69480611     0.97100
C1155       C  0.20255485  0.31620007  0.65950166     0.92000
O1156       O  0.19581867  0.33608872  0.68096406    -0.84100
O1157       O  0.22502120  0.77739367  0.70591204    -0.83600
C1158       C  0.16491623  0.61840429  0.63883144     0.95800
O1159       O  0.20196455  0.65118088  0.64948196    -0.72700
O1160       O  0.26430158  0.72418089  0.67628771    -0.76300
Al1161     Al  0.19951558  0.67891508  0.68513530     1.49000
C1162       C  0.28268658  0.75749760  0.65733755     0.91000
O1163       O  0.19002192  0.77174777  0.62274707    -0.82500
O1164       O  0.10048893  0.72361760  0.64982534    -0.76100
Al1165     Al  0.20447765  0.76923649  0.66490633     1.90100
O1166       O  0.14597332  0.69750511  0.61064903    -0.75100
O1167       O  0.08565617  0.64210598  0.68600192    -0.75000
O1168       O  0.12694150  0.61984276  0.63979278    -0.80600
O1169       O  0.14076453  0.62576986  0.69827148    -0.78800
O1170       O  0.17443264  0.70738797  0.66618945    -1.15000
O1171       O  0.19784729  0.70506586  0.72187457    -0.74200
C1172       C  0.21142911  0.74726522  0.72710889     0.96500
C1173       C  0.17135949  0.74001537  0.60314014     0.92900
Al1174     Al  0.11869560  0.67353972  0.64837655     1.55600
O1175       O  0.26065899  0.77686754  0.64862451    -0.78800
C1176       C  0.09827369  0.61604123  0.69973544     0.97100
C1177       C  0.12153953  0.76291398  0.66300234     0.92000
O1178       O  0.15152976  0.76825481  0.68156283    -0.84100
O1179       O  0.32347167  0.88040608  0.92877857    -0.83600
C1180       C  0.20000572  0.68476857  0.90985895     0.95800
O1181       O  0.23257654  0.70222483  0.92856231    -0.72700
O1182       O  0.30669916  0.75973879  0.89795551    -0.76300
Al1183     Al  0.28043774  0.76609650  0.93379884     1.49000
C1184       C  0.34064870  0.79500598  0.88536678     0.91000
O1185       O  0.26434252  0.81673927  0.85740026    -0.82500
O1186       O  0.19462809  0.81916794  0.92789786    -0.76100
Al1187     Al  0.28954360  0.84569046  0.89320665     1.90100
O1188       O  0.18922926  0.77598883  0.87136165    -0.75100
O1189       O  0.18282982  0.74662490  0.95665827    -0.75000
O1190       O  0.18091523  0.70686695  0.90096874    -0.80600
O1191       O  0.25540310  0.77108022  0.97068286    -0.78800
O1192       O  0.25354275  0.79200013  0.91401199    -1.15000
O1193       O  0.33615879  0.82385822  0.94359052    -0.74200
C1194       C  0.34859633  0.86684186  0.94276485     0.96500
C1195       C  0.22158857  0.79237182  0.85102185     0.92900
Al1196     Al  0.19119056  0.76431861  0.91440638     1.55600
O1197       O  0.34134997  0.83379461  0.88461141    -0.78800
C1198       C  0.21317816  0.75872839  0.97705411     0.97100
C1199       C  0.20104760  0.84751197  0.90734419     0.92000
O1200       O  0.24121009  0.86683700  0.89371226    -0.84100
O1201       O  0.24347049  0.09526556  0.88328171    -0.83600
C1202       C  0.13114729  0.14133801  0.81440684     0.95800
O1203       O  0.12416845  0.12842635  0.84144610    -0.72700
O1204       O  0.11787435  0.04929111  0.84789331    -0.76300
Al1205     Al  0.15357142  0.10775182  0.86765462     1.49000
C1206       C  0.13109898  0.02011009  0.84361456     0.91000
O1207       O  0.20861351  0.07090506  0.80063195    -0.82500
O1208       O  0.29446987  0.19634547  0.83474975    -0.76100
Al1209     Al  0.22520732  0.08330088  0.84253059     1.90100
O1210       O  0.24160031  0.14570323  0.78774611    -0.75100
O1211       O  0.21697327  0.21279842  0.84939287    -0.75000
O1212       O  0.17106830  0.15741034  0.80177102    -0.80600
O1213       O  0.18201564  0.16543427  0.88801331    -0.78800
O1214       O  0.20349694  0.12302393  0.84406715    -1.15000
O1215       O  0.17481418  0.08444053  0.89960984    -0.74200
C1216       C  0.21606644  0.09229100  0.90464009     0.96500
C1217       C  0.22306717  0.10316786  0.78053842     0.92900
Al1218     Al  0.22947244  0.17446098  0.82084642     1.55600
O1219       O  0.16955673  0.02828704  0.85375794    -0.78800
C1220       C  0.19448021  0.20375083  0.87452384     0.97100
C1221       C  0.31160057  0.16923416  0.83121707     0.92000
O1222       O  0.28531635  0.12600899  0.83175186    -0.84100
O1223       O  0.22574146  0.97758506  0.60431202    -0.83600
C1224       C  0.14843111  0.09582511  0.58192802     0.95800
O1225       O  0.12961544  0.05884740  0.59765468    -0.72700
O1226       O  0.12456723  0.99243921  0.56640470    -0.76300
Al1227     Al  0.14814516  0.01353940  0.60442424     1.49000
C1228       C  0.13131211  0.96291069  0.55311410     0.91000
O1229       O  0.23234130  0.04521282  0.53326985    -0.82500
O1230       O  0.28956449  0.10473962  0.60708345    -0.76100
Al1231     Al  0.23000494  0.01499081  0.56894614     1.90100
O1232       O  0.25843332  0.11696753  0.54984921    -0.75100
O1233       O  0.22110313  0.10664616  0.63419448    -0.75000
O1234       O  0.19187622  0.11850775  0.57755913    -0.80600
O1235       O  0.16772193  0.03300040  0.64364238    -0.78800
O1236       O  0.20560369  0.04563433  0.58883663    -1.15000
O1237       O  0.15207951  0.95899412  0.61442628    -0.74200
C1238       C  0.18480044  0.94943037  0.61586293     0.96500
C1239       C  0.24827161  0.08821095  0.52847669     0.92900
Al1240     Al  0.23813560  0.10737037  0.59222099     1.55600
O1241       O  0.16989439  0.96338827  0.55590025    -0.78800
C1242       C  0.19674010  0.07321060  0.65273933     0.97100
C1243       C  0.31508127  0.10193302  0.58723576     0.92000
O1244       O  0.29794289  0.06335634  0.57353067    -0.84100
O1245       O  0.85098500  0.74185843  0.87203141    -0.83600
C1246       C  0.00833011  0.85163807  0.80031979     0.95800
O1247       O  0.97437620  0.85271506  0.81280622    -0.72700
O1248       O  0.90103326  0.83731102  0.84282974    -0.76300
Al1249     Al  0.94847943  0.82060057  0.84886028     1.49000
C1250       C  0.86790233  0.82166868  0.82447622     0.91000
O1251       O  0.85779390  0.72055623  0.78673813    -0.82500
O1252       O  0.90930424  0.68095808  0.80934954    -0.76100
Al1253     Al  0.85943621  0.73327242  0.82983424     1.90100
O1254       O  0.93295594  0.75467540  0.77284043    -0.75100
O1255       O  0.99040154  0.74837145  0.84466567    -0.75000
O1256       O  0.00963165  0.81387012  0.80024910    -0.80600
O1257       O  0.00400000  0.81782940  0.85913371    -0.78800
O1258       O  0.92159667  0.76790310  0.82942028    -1.15000
O1259       O  0.92330464  0.79076341  0.88598187    -0.74200
C1260       C  0.88130908  0.76017252  0.89239672     0.96500
C1261       C  0.89024868  0.73664986  0.76643735     0.92900
Al1262     Al  0.95758812  0.75021580  0.80886220     1.55600
O1263       O  0.84885441  0.78031663  0.81625356    -0.78800
C1264       C  0.01582496  0.78676955  0.85851521     0.97100
C1265       C  0.86931599  0.66015043  0.82309654     0.92000
O1266       O  0.86320245  0.68193329  0.84359315    -0.84100
O1267       O  0.75707893  0.74828694  0.60097928    -0.83600
C1268       C  0.95188044  0.82487922  0.56896325     0.95800
O1269       O  0.93478838  0.84208022  0.58680033    -0.72700
O1270       O  0.87176820  0.85149539  0.55962693    -0.76300
Al1271     Al  0.87122027  0.82419414  0.59657559     1.49000
C1272       C  0.83415156  0.84640634  0.54918195     0.91000
O1273       O  0.81310148  0.74735279  0.52543124    -0.82500
O1274       O  0.82003401  0.68573296  0.59803669    -0.76100
Al1275     Al  0.78768606  0.74651690  0.56311658     1.90100
O1276       O  0.85810512  0.71824283  0.53816804    -0.75100
O1277       O  0.89413936  0.74994814  0.62095792    -0.75000
O1278       O  0.92967806  0.78254834  0.56283572    -0.80600
O1279       O  0.87160133  0.79962359  0.63445090    -0.78800
O1280       O  0.84434150  0.76902227  0.58002827    -1.15000
O1281       O  0.81393768  0.82038540  0.61014714    -0.74200
C1282       C  0.77146780  0.78818288  0.61331704     0.96500
C1283       C  0.83903765  0.73087424  0.51829094     0.92900
Al1284     Al  0.87322935  0.73611155  0.58013190     1.55600
O1285       O  0.79600226  0.80755772  0.55235057    -0.78800
C1286       C  0.88305061  0.76971756  0.64118774     0.97100
C1287       C  0.78973297  0.66030669  0.58003603     0.92000
O1288       O  0.76852560  0.67808922  0.56634260    -0.84100
O1289       O  0.87295638  0.10972244  0.88104713    -0.83600
C1290       C  0.82304329  0.95294609  0.81014645     0.95800
O1291       O  0.84145680  0.96148446  0.83536088    -0.72700
O1292       O  0.92156181  0.03616762  0.83852273    -0.76300
Al1293     Al  0.86309667  0.01044378  0.86169332     1.49000
C1294       C  0.95067310  0.07926905  0.83560785     0.91000
O1295       O  0.89383157  0.10351083  0.79699500    -0.82500
O1296       O  0.76947193  0.06036757  0.83601276    -0.76100
Al1297     Al  0.88333904  0.10571700  0.83939173     1.90100
O1298       O  0.81836405  0.05798774  0.78661161    -0.75100
O1299       O  0.75450532  0.96828142  0.85119439    -0.75000
O1300       O  0.80440480  0.97516423  0.79988020    -0.80600
O1301       O  0.80674197  0.97872879  0.88519482    -0.78800
O1302       O  0.84448995  0.04399348  0.84092744    -1.15000
O1303       O  0.88787211  0.05399356  0.89386375    -0.74200
C1304       C  0.87889043  0.08582891  0.90103060     0.96500
C1305       C  0.86085151  0.08470968  0.77815818     0.92900
Al1306     Al  0.79076482  0.01768573  0.82068579     1.55600
O1307       O  0.94025268  0.10749923  0.84670016    -0.78800
C1308       C  0.76603015  0.95453649  0.87478509     0.97100
C1309       C  0.79631828  0.10458868  0.83196417     0.92000
O1310       O  0.83974300  0.12223426  0.83183755    -0.84100
O1311       O  0.99007968  0.21296791  0.60066655    -0.83600
C1312       C  0.87039201  0.01801746  0.57981477     0.95800
O1313       O  0.90785415  0.03587861  0.59420706    -0.72700
O1314       O  0.97719560  0.09750841  0.56375854    -0.76300
Al1315     Al  0.95300155  0.09884588  0.60175520     1.49000
C1316       C  0.01063933  0.13437162  0.55255761     0.91000
O1317       O  0.92785431  0.14933982  0.52999659    -0.82500
O1318       O  0.86463701  0.15194237  0.60360138    -0.76100
Al1319     Al  0.95551385  0.17921741  0.56527369     1.90100
O1320       O  0.85411859  0.10583542  0.54726855    -0.75100
O1321       O  0.85853740  0.08210461  0.63227202    -0.75000
O1322       O  0.84746598  0.03834041  0.57713233    -0.80600
O1323       O  0.93064372  0.09740032  0.64071928    -0.78800
O1324       O  0.92263375  0.12464440  0.58617089    -1.15000
O1325       O  0.00635885  0.15729999  0.61248022    -0.74200
C1326       C  0.01652208  0.19967961  0.61327667     0.96500
C1327       C  0.88455785  0.12231821  0.52569931     0.92900
Al1328     Al  0.86047562  0.09668366  0.59011139     1.55600
O1329       O  0.00967553  0.17211726  0.55419728    -0.78800
C1330       C  0.89090625  0.08913092  0.65027507     0.97100
C1331       C  0.86720091  0.17818900  0.58267972     0.92000
O1332       O  0.90586330  0.19808080  0.56761618    -0.84100
C1333       C  0.88103880  0.13698920  0.94282701    -0.15100
C1334       C  0.87474031  0.09400865  0.93309604     0.07000
C1335       C  0.86399127  0.05813095  0.95436000    -0.15100
C1336       C  0.86188367  0.06589075  0.98493303    -0.15100
C1337       C  0.87106991  0.10975728  0.99465852     0.07000
C1338       C  0.88011850  0.14509193  0.97348127    -0.15100
H1339       H  0.88904441  0.16502232  0.92687396     0.11000
H1340       H  0.85823190  0.02435933  0.94738566     0.11000
H1341       H  0.85643717  0.03881657  0.00105672     0.11000
H1342       H  0.88898076  0.17971670  0.98072370     0.11000
C1343       C  0.83295540  0.07961984  0.72600802    -0.15100
C1344       C  0.87045944  0.09151278  0.74555800     0.07000
C1345       C  0.91497335  0.10398125  0.73351741    -0.15100
C1346       C  0.92139679  0.10286691  0.70252527    -0.15100
C1347       C  0.88345671  0.08948857  0.68303066     0.07000
C1348       C  0.83940699  0.07872562  0.69507572    -0.15100
H1349       H  0.79814818  0.06989520  0.73469123     0.11000
H1350       H  0.94427803  0.11281693  0.74807733     0.11000
H1351       H  0.95609313  0.11215733  0.69386232     0.11000
H1352       H  0.80978036  0.06904849  0.68065884     0.11000
C1353       C  0.87917993  0.92871202  0.53430814    -0.15100
C1354       C  0.83467032  0.88929935  0.54022641     0.07000
C1355       C  0.79814497  0.89574527  0.55139119    -0.15100
C1356       C  0.80889646  0.93880375  0.56345336    -0.15100
C1357       C  0.85595198  0.97509620  0.56357169     0.07000
C1358       C  0.89023794  0.97114582  0.54692219    -0.15100
H1359       H  0.90754780  0.92486149  0.52468345     0.11000
H1360       H  0.76300293  0.86623529  0.55470297     0.11000
H1361       H  0.78153456  0.94244043  0.57483431     0.11000
H1362       H  0.92621326  0.00005185  0.54521564     0.11000
C1363       C  0.88643817  0.89564426  0.79889356    -0.15100
C1364       C  0.85267210  0.85231865  0.81131859     0.07000
C1365       C  0.80471872  0.83824936  0.80991265    -0.15100
C1366       C  0.79151353  0.87054311  0.80091056    -0.15100
C1367       C  0.82631374  0.91679901  0.79379873     0.07000
C1368       C  0.87291222  0.92704130  0.78888732    -0.15100
H1369       H  0.92344497  0.90607652  0.79839065     0.11000
H1370       H  0.77799700  0.80389823  0.81810927     0.11000
H1371       H  0.75511229  0.86145871  0.80384112     0.11000
H1372       H  0.90027314  0.96244841  0.78299807     0.11000
C1373       C  0.90342513  0.75152292  0.94435228    -0.15100
C1374       C  0.86843119  0.74590797  0.92418699     0.07000
C1375       C  0.82209622  0.72808605  0.93494841    -0.15100
C1376       C  0.81181347  0.71981318  0.96569804    -0.15100
C1377       C  0.84743111  0.72814687  0.98603689     0.07000
C1378       C  0.89289898  0.74229770  0.97503080    -0.15100
H1379       H  0.93933518  0.76437916  0.93648336     0.11000
H1380       H  0.79445273  0.72295915  0.91985730     0.11000
H1381       H  0.77641580  0.70890132  0.97379895     0.11000
H1382       H  0.92094729  0.74939836  0.99031427     0.11000
C1383       C  0.85318956  0.75481679  0.72438929    -0.15100
C1384       C  0.87997187  0.73558843  0.73449340     0.07000
C1385       C  0.90538484  0.72462232  0.71359908    -0.15100
C1386       C  0.90568872  0.73461981  0.68308046    -0.15100
C1387       C  0.88148068  0.75681397  0.67312082     0.07000
C1388       C  0.85420464  0.76567897  0.69392888    -0.15100
H1389       H  0.83410839  0.76427213  0.74022580     0.11000
H1390       H  0.92664796  0.71010528  0.72113513     0.11000
H1391       H  0.92630384  0.72673043  0.66749980     0.11000
H1392       H  0.83426800  0.78181818  0.68671773     0.11000
C1393       C  0.12934370  0.15730084  0.56688666    -0.15100
C1394       C  0.11891333  0.11063242  0.56676383     0.07000
C1395       C  0.07992489  0.07730435  0.55119777    -0.15100
C1396       C  0.04812645  0.08889458  0.53947770    -0.15100
C1397       C  0.05360981  0.13316064  0.54486388     0.07000
C1398       C  0.09663065  0.16858190  0.55577192    -0.15100
H1399       H  0.16059763  0.18393277  0.57766968     0.11000
H1400       H  0.07275863  0.04164036  0.54953243     0.11000
H1401       H  0.01569481  0.06122241  0.53039361     0.11000
H1402       H  0.10231770  0.20331599  0.55918259     0.11000
C1403       C  0.07976067  0.87816714  0.54819501    -0.15100
C1404       C  0.08978042  0.92343882  0.54025214     0.07000
C1405       C  0.05249414  0.93081945  0.53311727    -0.15100
C1406       C  0.00660722  0.89719851  0.54124313    -0.15100
C1407       C  0.99768656  0.85507594  0.55463956     0.07000
C1408       C  0.03348134  0.84386604  0.55569018    -0.15100
H1409       H  0.10790161  0.87132306  0.55283713     0.11000
H1410       H  0.05946395  0.96522647  0.52612795     0.11000
H1411       H  0.97868590  0.90537266  0.53914907     0.11000
H1412       H  0.02650226  0.81060528  0.56507434     0.11000
C1413       C  0.11960360  0.94613936  0.82134715    -0.15100
C1414       C  0.10494617  0.97923465  0.82462992     0.07000
C1415       C  0.06742295  0.97469443  0.80773838    -0.15100
C1416       C  0.04143741  0.93490936  0.79083737    -0.15100
C1417       C  0.04974990  0.89728777  0.79341776     0.07000
C1418       C  0.09228915  0.90540648  0.80537959    -0.15100
H1419       H  0.15020023  0.95009410  0.83279568     0.11000
H1420       H  0.05631853  0.00022950  0.80911208     0.11000
H1421       H  0.00940031  0.92986688  0.78080372     0.11000
H1422       H  0.10051096  0.87765519  0.80654709     0.11000
C1423       C  0.21300911  0.11747333  0.95663851    -0.15100
C1424       C  0.23164764  0.09877389  0.93590332     0.07000
C1425       C  0.26394086  0.08584650  0.94557609    -0.15100
C1426       C  0.27371525  0.08726628  0.97608128    -0.15100
C1427       C  0.25247842  0.10298442  0.99703064     0.07000
C1428       C  0.22372418  0.11998223  0.98697572    -0.15100
H1429       H  0.18875523  0.12862662  0.94952715     0.11000
H1430       H  0.27912639  0.07186367  0.92993736     0.11000
H1431       H  0.29530130  0.07313066  0.98362869     0.11000
H1432       H  0.20616361  0.13113245  0.00287677     0.11000
C1433       C  0.18530334  0.04927472  0.73714210    -0.15100
C1434       C  0.21826492  0.09329092  0.74799682     0.07000
C1435       C  0.24388968  0.13045129  0.72726426    -0.15100
C1436       C  0.23642508  0.12411772  0.69651842    -0.15100
C1437       C  0.20311415  0.08040973  0.68555443     0.07000
C1438       C  0.17779074  0.04289570  0.70619900    -0.15100
H1439       H  0.16456546  0.02023820  0.75254843     0.11000
H1440       H  0.26957311  0.16494615  0.73484508     0.11000
H1441       H  0.25685506  0.15354279  0.68133388     0.11000
H1442       H  0.15206135  0.00854476  0.69845053     0.11000
C1443       C  0.05604196  0.08803365  0.79351137    -0.15100
C1444       C  0.08966161  0.13492177  0.79897928     0.07000
C1445       C  0.07384437  0.16520199  0.80785337    -0.15100
C1446       C  0.02766274  0.14689593  0.81848807    -0.15100
C1447       C  0.99642411  0.09813711  0.81941734     0.07000
C1448       C  0.00975505  0.06911479  0.80469234    -0.15100
H1449       H  0.06751660  0.06477098  0.78509901     0.11000
H1450       H  0.09883601  0.20179111  0.81144914     0.11000
H1451       H  0.01774654  0.17073176  0.82819336     0.11000
H1452       H  0.98562260  0.03175857  0.80350081     0.11000
C1453       C  0.14895444  0.83783382  0.86327780    -0.15100
C1454       C  0.15689312  0.84358404  0.89436134     0.07000
C1455       C  0.11695068  0.82949954  0.91343262    -0.15100
C1456       C  0.07105729  0.80936144  0.90203597    -0.15100
C1457       C  0.06296305  0.80032642  0.87127677     0.07000
C1458       C  0.10273739  0.81562374  0.85204034    -0.15100
H1459       H  0.17821680  0.84750024  0.84773602     0.11000
H1460       H  0.12109283  0.83234622  0.93751588     0.11000
H1461       H  0.04163756  0.80017781  0.91739011     0.11000
H1462       H  0.09806743  0.81087374  0.82809314     0.11000
C1463       C  0.13124192  0.81722742  0.61993884    -0.15100
C1464       C  0.12516502  0.80734186  0.65101660     0.07000
C1465       C  0.13990699  0.84569284  0.67039320    -0.15100
C1466       C  0.16127039  0.89209040  0.65919579    -0.15100
C1467       C  0.17075747  0.90199130  0.62833490     0.07000
C1468       C  0.15466046  0.86383026  0.60887233    -0.15100
H1469       H  0.12120566  0.78916050  0.60420552     0.11000
H1470       H  0.13683184  0.83984752  0.69447231     0.11000
H1471       H  0.17095258  0.92040076  0.67472264     0.11000
H1472       H  0.16020689  0.87015414  0.58492779     0.11000
C1473       C  0.23971409  0.80662874  0.76754471    -0.15100
C1474       C  0.21007528  0.76066376  0.75837303     0.07000
C1475       C  0.17855706  0.72692377  0.77942956    -0.15100
C1476       C  0.17881921  0.73828676  0.80959435    -0.15100
C1477       C  0.21115055  0.78330515  0.81908881     0.07000
C1478       C  0.24054622  0.81773603  0.79773828    -0.15100
H1479       H  0.26375083  0.83333789  0.75168437     0.11000
H1480       H  0.15448068  0.69139944  0.77267336     0.11000
H1481       H  0.15623543  0.71119509  0.82572921     0.11000
H1482       H  0.26581257  0.85278803  0.80470699     0.11000
C1483       C  0.22422335  0.78492299  0.55984446    -0.15100
C1484       C  0.17939986  0.75157083  0.57085964     0.07000
C1485       C  0.14403789  0.72413463  0.55052067    -0.15100
C1486       C  0.15411553  0.72804215  0.51968724    -0.15100
C1487       C  0.20002532  0.75862679  0.50887164     0.07000
C1488       C  0.23460372  0.78808538  0.52909307    -0.15100
H1489       H  0.25200305  0.80623815  0.57512498     0.11000
H1490       H  0.10906209  0.69829735  0.55862997     0.11000
H1491       H  0.12679918  0.70538234  0.50454283     0.11000
H1492       H  0.27014574  0.81264283  0.52118813     0.11000
C1493       C  0.13598649  0.49702287  0.65213018    -0.15100
C1494       C  0.18235900  0.50591090  0.65345943     0.07000
C1495       C  0.21897100  0.54621741  0.63972029    -0.15100
C1496       C  0.21063199  0.58030275  0.62818014    -0.15100
C1497       C  0.16593752  0.57561460  0.63195571     0.07000
C1498       C  0.12777307  0.53205055  0.64123314    -0.15100
H1499       H  0.10693806  0.46469433  0.66128347     0.11000
H1500       H  0.25445200  0.55223144  0.63914223     0.11000
H1501       H  0.24053957  0.61310874  0.62029461     0.11000
H1502       H  0.09270262  0.52687286  0.64293386     0.11000
C1503       C  0.11961252  0.24919903  0.66598174    -0.15100
C1504       C  0.15855859  0.27660100  0.64646990     0.07000
C1505       C  0.14904403  0.27817872  0.61591273    -0.15100
C1506       C  0.10230185  0.25808293  0.60603659    -0.15100
C1507       C  0.06357310  0.23234639  0.62579535     0.07000
C1508       C  0.07308977  0.22650003  0.65565288    -0.15100
H1509       H  0.12509447  0.24732700  0.68974014     0.11000
H1510       H  0.17764645  0.29844028  0.60004656     0.11000
H1511       H  0.09634455  0.26169621  0.58260455     0.11000
H1512       H  0.04433055  0.20458317  0.67110296     0.11000
C1513       C  0.13277633  0.27630354  0.87625109    -0.15100
C1514       C  0.12673134  0.28095765  0.90720179     0.07000
C1515       C  0.14261766  0.25869681  0.92717898    -0.15100
C1516       C  0.16537989  0.23471196  0.91678520    -0.15100
C1517       C  0.17505817  0.23367033  0.88600031     0.07000
C1518       C  0.15763343  0.25422041  0.86589409    -0.15100
H1519       H  0.12154091  0.29290366  0.85999340     0.11000
H1520       H  0.13963624  0.26203318  0.95116045     0.11000
H1521       H  0.17656833  0.21792237  0.93297916     0.11000
H1522       H  0.16286249  0.25279368  0.84197921     0.11000
C1523       C  0.18687726  0.43033704  0.53357294    -0.15100
C1524       C  0.21016279  0.41710988  0.51234426     0.07000
C1525       C  0.22917499  0.38967180  0.52182197    -0.15100
C1526       C  0.22786074  0.37854150  0.55221852    -0.15100
C1527       C  0.20660211  0.39371813  0.57346163     0.07000
C1528       C  0.18495493  0.41853143  0.56392183    -0.15100
H1529       H  0.17098206  0.45071214  0.52683171     0.11000
H1530       H  0.24655220  0.37831639  0.50594963     0.11000
H1531       H  0.24548882  0.36001089  0.55941269     0.11000
H1532       H  0.16949567  0.43149991  0.58012687     0.11000
C1533       C  0.22217339  0.39500987  0.81455231    -0.15100
C1534       C  0.17791211  0.38518835  0.82550112     0.07000
C1535       C  0.14235570  0.37715673  0.80520872    -0.15100
C1536       C  0.15189751  0.38200546  0.77435962    -0.15100
C1537       C  0.19741446  0.39595914  0.76352969     0.07000
C1538       C  0.23201286  0.40080472  0.78373746    -0.15100
H1539       H  0.25005294  0.40154691  0.82984033     0.11000
H1540       H  0.10780296  0.36929576  0.81331877     0.11000
H1541       H  0.12468597  0.37785579  0.75918899     0.11000
H1542       H  0.26728780  0.41096692  0.77576101     0.11000
C1543       C  0.21290878  0.59103348  0.87293388    -0.15100
C1544       C  0.16815711  0.55173630  0.87857049     0.07000
C1545       C  0.13087493  0.55850368  0.88763958    -0.15100
C1546       C  0.14037313  0.60279847  0.89672167    -0.15100
C1547       C  0.18707893  0.63994407  0.89647939     0.07000
C1548       C  0.22261791  0.63467316  0.88271254    -0.15100
H1549       H  0.24202741  0.58689162  0.86516290     0.11000
H1550       H  0.09579622  0.52897830  0.89114195     0.11000
H1551       H  0.11219604  0.60712864  0.90612032     0.11000
H1552       H  0.25841830  0.66379742  0.88101550     0.11000
C1553       C  0.37606777  0.74627023  0.87683423    -0.15100
C1554       C  0.38261310  0.79155689  0.87858566     0.07000
C1555       C  0.42686678  0.82868982  0.88652368    -0.15100
C1556       C  0.46063825  0.81919470  0.89801401    -0.15100
C1557       C  0.44974092  0.77259983  0.90161829     0.07000
C1558       C  0.40877307  0.73662016  0.88921728    -0.15100
H1559       H  0.34268832  0.71718466  0.87002848     0.11000
H1560       H  0.43308299  0.86401221  0.88745412     0.11000
H1561       H  0.49323519  0.84758024  0.90637727     0.11000
H1562       H  0.40096165  0.70068483  0.89051160     0.11000
C1563       C  0.70842450  0.85141212  0.93080750    -0.15100
C1564       C  0.68743407  0.81225351  0.91191082     0.07000
C1565       C  0.69369083  0.82109799  0.88070950    -0.15100
C1566       C  0.71588082  0.86728989  0.86896751    -0.15100
C1567       C  0.73523884  0.90626085  0.88790622     0.07000
C1568       C  0.73289248  0.89753746  0.91899875    -0.15100
H1569       H  0.70391201  0.84633862  0.95492971     0.11000
H1570       H  0.67805129  0.79230137  0.86530331     0.11000
H1571       H  0.71842394  0.87266601  0.84491355     0.11000
H1572       H  0.74901786  0.92654460  0.93425429     0.11000
C1573       C  0.38201899  0.59388350  0.87296981    -0.15100
C1574       C  0.41994860  0.58709049  0.87925307     0.07000
C1575       C  0.41080492  0.54199925  0.88692267    -0.15100
C1576       C  0.36484939  0.50708970  0.89462805    -0.15100
C1577       C  0.32853307  0.51760207  0.89431548     0.07000
C1578       C  0.33654356  0.55974588  0.88146431    -0.15100
H1579       H  0.38825301  0.62809542  0.86616173     0.11000
H1580       H  0.43940925  0.53562608  0.89106138     0.11000
H1581       H  0.35855215  0.47384299  0.90360574     0.11000
H1582       H  0.30821768  0.56743192  0.87996044     0.11000
C1583       C  0.39383329  0.63716137  0.64836465    -0.15100
C1584       C  0.43412638  0.64395985  0.66293330     0.07000
C1585       C  0.44789317  0.61008352  0.66015301    -0.15100
C1586       C  0.41846874  0.56757473  0.64648694    -0.15100
C1587       C  0.37493257  0.55846964  0.63573472     0.07000
C1588       C  0.36538768  0.59535328  0.63385238    -0.15100
H1589       H  0.38296175  0.66298913  0.64946793     0.11000
H1590       H  0.47995096  0.61518924  0.67013056     0.11000
H1591       H  0.42696251  0.54000196  0.64785980     0.11000
H1592       H  0.33250334  0.58948412  0.62488931     0.11000
C1593       C  0.72113215  0.83678519  0.67139347    -0.15100
C1594       C  0.69309923  0.84858356  0.65379932     0.07000
C1595       C  0.69318340  0.84117327  0.62265793    -0.15100
C1596       C  0.71446903  0.81699269  0.61038269    -0.15100
C1597       C  0.73977080  0.80256189  0.62826826     0.07000
C1598       C  0.74506862  0.81525235  0.65867009    -0.15100
H1599       H  0.72097431  0.84025472  0.69553639     0.11000
H1600       H  0.67104237  0.84816586  0.60832328     0.11000
H1601       H  0.71094074  0.80928407  0.58671701     0.11000
H1602       H  0.76663579  0.80718768  0.67280711     0.11000
C1603       C  0.59440844  0.74737423  0.78137659    -0.15100
C1604       C  0.56362197  0.76219771  0.77160798     0.07000
C1605       C  0.54561074  0.78143483  0.79238749    -0.15100
C1606       C  0.55586997  0.78323995  0.82276296    -0.15100
C1607       C  0.58351829  0.76499150  0.83285319     0.07000
C1608       C  0.60365433  0.74804291  0.81194433    -0.15100
H1609       H  0.60893854  0.73276925  0.76572197     0.11000
H1610       H  0.52238034  0.79384328  0.78523433     0.11000
H1611       H  0.53901086  0.79519843  0.83863922     0.11000
H1612       H  0.62426677  0.73283401  0.81954050     0.11000
C1613       C  0.52034428  0.71819911  0.57303491    -0.15100
C1614       C  0.55285165  0.76248599  0.58364705     0.07000
C1615       C  0.57775681  0.79966111  0.56279244    -0.15100
C1616       C  0.56999999  0.79291602  0.53207147    -0.15100
C1617       C  0.53706814  0.74882646  0.52140640     0.07000
C1618       C  0.51248035  0.71144987  0.54222409    -0.15100
H1619       H  0.50018035  0.68916257  0.58855043     0.11000
H1620       H  0.60303818  0.83438035  0.57025228     0.11000
H1621       H  0.58984432  0.82222102  0.51669619     0.11000
H1622       H  0.48703727  0.67682654  0.53471689     0.11000
C1623       C  0.41116290  0.83764168  0.63928532    -0.15100
C1624       C  0.42564731  0.80479681  0.63500242     0.07000
C1625       C  0.39159955  0.75781327  0.63064306    -0.15100
C1626       C  0.34424907  0.74222911  0.63699533    -0.15100
C1627       C  0.33048257  0.77431734  0.64555262     0.07000
C1628       C  0.36342369  0.82242998  0.64421081    -0.15100
H1629       H  0.43692754  0.87405662  0.64275142     0.11000
H1630       H  0.40246478  0.73230861  0.62690735     0.11000
H1631       H  0.31889959  0.70504141  0.63691749     0.11000
H1632       H  0.35298207  0.84773016  0.65002396     0.11000
C1633       C  0.82910120  0.57107498  0.58076689    -0.15100
C1634       C  0.84296668  0.57236445  0.55054246     0.07000
C1635       C  0.82884311  0.59476013  0.52960139    -0.15100
C1636       C  0.80294794  0.61627570  0.53866436    -0.15100
C1637       C  0.79322347  0.61907016  0.56926133     0.07000
C1638       C  0.80567543  0.59490206  0.59002498    -0.15100
H1639       H  0.83752563  0.55259625  0.59744043     0.11000
H1640       H  0.83731380  0.59504824  0.50600721     0.11000
H1641       H  0.79403150  0.63410687  0.52186083     0.11000
H1642       H  0.79968640  0.59679824  0.61381630     0.11000
C1643       C  0.05216766  0.50514738  0.00385989    -0.15100
C1644       C  0.02466072  0.51541153  0.98466718     0.07000
C1645       C  0.02473515  0.50447838  0.95410185    -0.15100
C1646       C  0.04511349  0.47819011  0.94414106    -0.15100
C1647       C  0.06992254  0.46538838  0.96368504     0.07000
C1648       C  0.07546295  0.48165892  0.99332544    -0.15100
H1649       H  0.05208255  0.51143754  0.52767096     0.11000
H1650       H  0.00297778  0.51025324  0.93863984     0.11000
H1651       H  0.04169445  0.46797924  0.92089692     0.11000
H1652       H  0.09684855  0.47503210  0.00858517     0.11000
C1653       C  0.81647582  0.19566980  0.77893069    -0.15100
C1654       C  0.82982472  0.23368280  0.79806011     0.07000
C1655       C  0.81540007  0.22344144  0.82845519    -0.15100
C1656       C  0.79360331  0.17701590  0.83992980    -0.15100
C1657       C  0.78340105  0.13901576  0.82111649     0.07000
C1658       C  0.79218093  0.14920424  0.79005775    -0.15100
H1659       H  0.82519476  0.20197261  0.75521611     0.11000
H1660       H  0.82243990  0.25163598  0.84356034     0.11000
H1661       H  0.78889224  0.17132884  0.86400452     0.11000
H1662       H  0.78631430  0.12155668  0.77476003     0.11000
C1663       C  0.06452110  0.56260499  0.74541143    -0.15100
C1664       C  0.06441219  0.56986422  0.71427484     0.07000
C1665       C  0.04225914  0.53000450  0.69629895    -0.15100
C1666       C  0.02080788  0.48440553  0.70887508    -0.15100
C1667       C  0.01683741  0.47697724  0.74020946     0.07000
C1668       C  0.03972661  0.51703686  0.75824399    -0.15100
H1669       H  0.08333277  0.59229978  0.75987032     0.11000
H1670       H  0.04205420  0.53426597  0.67226885     0.11000
H1671       H  0.00398570  0.45494040  0.69407099     0.11000
H1672       H  0.03717177  0.51310708  0.78245894     0.11000
C1673       C  0.84156077  0.37787902  0.87267801    -0.15100
C1674       C  0.86640528  0.41477159  0.85158096     0.07000
C1675       C  0.89997698  0.45884388  0.86198562    -0.15100
C1676       C  0.90796955  0.46617117  0.89264220    -0.15100
C1677       C  0.88272028  0.42962543  0.91381712     0.07000
C1678       C  0.84967806  0.38522768  0.90350493    -0.15100
H1679       H  0.81578282  0.34324964  0.86537069     0.11000
H1680       H  0.92012846  0.48781322  0.84643230     0.11000
H1681       H  0.93374873  0.50090976  0.89979547     0.11000
H1682       H  0.82932187  0.35660127  0.91925697     0.11000
C1683       C  0.88983402  0.45393359  0.65320380    -0.15100
C1684       C  0.91243907  0.43006803  0.66298667     0.07000
C1685       C  0.92892132  0.41009064  0.64174061    -0.15100
C1686       C  0.92066336  0.41169509  0.61123635    -0.15100
C1687       C  0.89456507  0.43208580  0.60172105     0.07000
C1688       C  0.88045086  0.45445504  0.62275475    -0.15100
H1689       H  0.87613162  0.46879107  0.66928653     0.11000
H1690       H  0.94598561  0.39104072  0.64898635     0.11000
H1691       H  0.93208650  0.39454717  0.59536704     0.11000
H1692       H  0.86087540  0.47107677  0.61571701     0.11000
C1693       C  0.78512554  0.59495050  0.82928289    -0.15100
C1694       C  0.82504897  0.62058446  0.81014847     0.07000
C1695       C  0.81710838  0.61934116  0.77909073    -0.15100
C1696       C  0.77086650  0.59663050  0.76795450    -0.15100
C1697       C  0.73111596  0.57234524  0.78726287     0.07000
C1698       C  0.73919777  0.57039234  0.81797108    -0.15100
H1699       H  0.78935825  0.59551971  0.85335125     0.11000
H1700       H  0.84645018  0.63873523  0.76352024     0.11000
H1701       H  0.76614188  0.59737775  0.74403252     0.11000
H1702       H  0.70974613  0.54997678  0.83332700     0.11000
C1703       C  0.48075939  0.49971414  0.69753956    -0.15100
C1704       C  0.48948709  0.50684892  0.72848885     0.07000
C1705       C  0.45010799  0.49253662  0.74800192    -0.15100
C1706       C  0.40386865  0.47034982  0.73721157    -0.15100
C1707       C  0.39500288  0.45959095  0.70670146     0.07000
C1708       C  0.43421830  0.47547614  0.68691685    -0.15100
H1709       H  0.50976710  0.50993814  0.68169187     0.11000
H1710       H  0.45502855  0.49668613  0.77198344     0.11000
H1711       H  0.37474068  0.46097313  0.75286059     0.11000
H1712       H  0.42886186  0.46996687  0.66305142     0.11000
C1713       C  0.71402871  0.42146684  0.70221860    -0.15100
C1714       C  0.72040874  0.46614587  0.70726801     0.07000
C1715       C  0.76370055  0.50133822  0.71795278    -0.15100
C1716       C  0.79533826  0.48931837  0.72982938    -0.15100
C1717       C  0.78354890  0.44228209  0.73056212     0.07000
C1718       C  0.74471562  0.40911707  0.71479398    -0.15100
H1719       H  0.68132997  0.39406664  0.69324056     0.11000
H1720       H  0.76993374  0.53631530  0.72121433     0.11000
H1721       H  0.82661829  0.51572698  0.74071937     0.11000
H1722       H  0.73671169  0.37312264  0.71371943     0.11000
C1723       C  0.39862848  0.23335196  0.57721443    -0.15100
C1724       C  0.40317111  0.23839332  0.54583117     0.07000
C1725       C  0.38499489  0.19746004  0.52882819    -0.15100
C1726       C  0.36212091  0.15269464  0.54260973    -0.15100
C1727       C  0.35438472  0.14730522  0.57391609     0.07000
C1728       C  0.37365932  0.18854725  0.59100025    -0.15100
H1729       H  0.41406214  0.26410868  0.59106636     0.11000
H1730       H  0.38853479  0.20021086  0.00467963     0.11000
H1731       H  0.34742038  0.12224756  0.52852126     0.11000
H1732       H  0.36792094  0.18610855  0.61510326     0.11000
C1733       C  0.69921705  0.49797565  0.97770399    -0.15100
C1734       C  0.66577980  0.45009214  0.47730278     0.07000
C1735       C  0.67819921  0.41867532  0.46531435    -0.15100
C1736       C  0.72506608  0.43401363  0.45763730    -0.15100
C1737       C  0.75995959  0.48004808  0.96378300     0.07000
C1738       C  0.74646124  0.51295950  0.97094679    -0.15100
H1739       H  0.68968691  0.52286469  0.98606241     0.11000
H1740       H  0.65225213  0.38180251  0.46382411     0.11000
H1741       H  0.73486270  0.40812278  0.45209415     0.11000
H1742       H  0.77282789  0.54871414  0.97556278     0.11000
C1743       C  0.46502920  0.48368973  0.95316063    -0.15100
C1744       C  0.45460771  0.47106971  0.98375312     0.07000
C1745       C  0.46512121  0.50730947  0.00420520    -0.15100
C1746       C  0.48733649  0.55449212  0.99461043    -0.15100
C1747       C  0.50200716  0.56720686  0.96452258     0.07000
C1748       C  0.48966095  0.53109525  0.94386198    -0.15100
H1749       H  0.45776351  0.45718884  0.93665740     0.11000
H1750       H  0.45839738  0.49924664  0.52799974     0.11000
H1751       H  0.49381033  0.58122977  0.01081337     0.11000
H1752       H  0.49872729  0.53964753  0.92031713     0.11000
C1753       C  0.56938591  0.47377005  0.60112777    -0.15100
C1754       C  0.54318973  0.42734512  0.59187765     0.07000
C1755       C  0.51493679  0.39195312  0.61310231    -0.15100
C1756       C  0.51520678  0.40252453  0.64343921    -0.15100
C1757       C  0.54430753  0.44844307  0.65285612     0.07000
C1758       C  0.57026874  0.48414882  0.63143119    -0.15100
H1759       H  0.59084875  0.50167670  0.58516979     0.11000
H1760       H  0.49350584  0.35593165  0.60632333     0.11000
H1761       H  0.49537823  0.37450193  0.65968281     0.11000
H1762       H  0.59303599  0.51986757  0.63838591     0.11000
C1763       C  0.48288943  0.39369542  0.88325025    -0.15100
C1764       C  0.51791423  0.42077131  0.90381817     0.07000
C1765       C  0.56371172  0.45218362  0.89330692    -0.15100
C1766       C  0.57493726  0.45438973  0.86272255    -0.15100
C1767       C  0.54027422  0.42581430  0.84225274     0.07000
C1768       C  0.49384571  0.39655675  0.85265712    -0.15100
H1769       H  0.44734786  0.36894030  0.89105893     0.11000
H1770       H  0.59132252  0.47271440  0.90888794     0.11000
H1771       H  0.61096155  0.47777659  0.85514223     0.11000
H1772       H  0.46651320  0.37444487  0.83735025     0.11000
C1773       C  0.38426796  0.14684906  0.78128283    -0.15100
C1774       C  0.40775523  0.13355466  0.80161587     0.07000
C1775       C  0.41076648  0.14854651  0.83142476    -0.15100
C1776       C  0.38617452  0.17117272  0.84120147    -0.15100
C1777       C  0.35976299  0.18169553  0.82114749     0.07000
C1778       C  0.36257662  0.17225266  0.79058212    -0.15100
H1779       H  0.38253874  0.13731851  0.75798175     0.11000
H1780       H  0.43092509  0.14137194  0.84739176     0.11000
H1781       H  0.38400847  0.17631885  0.86502031     0.11000
H1782       H  0.34173411  0.17818825  0.77444188     0.11000
C1783       C  0.69995804  0.17202247  0.72931505    -0.15100
C1784       C  0.66317145  0.18179181  0.73094603     0.07000
C1785       C  0.66799772  0.22177316  0.71665814    -0.15100
C1786       C  0.71160557  0.25536213  0.70494809    -0.15100
C1787       C  0.75104983  0.25051151  0.70986084     0.07000
C1788       C  0.74413070  0.20647675  0.71829795    -0.15100
H1789       H  0.69574964  0.13997697  0.73903447     0.11000
H1790       H  0.63890345  0.22838258  0.71638073     0.11000
H1791       H  0.71596600  0.28852562  0.69728605     0.11000
H1792       H  0.77383138  0.20125749  0.72077606     0.11000
C1793       C  0.48333971  0.92719001  0.76687323    -0.15100
C1794       C  0.46398228  0.94727816  0.74780251     0.07000
C1795       C  0.46630440  0.94081295  0.71671150    -0.15100
C1796       C  0.49090630  0.91918859  0.70513662    -0.15100
C1797       C  0.51198205  0.90109692  0.72423742     0.07000
C1798       C  0.50603555  0.90378672  0.75535157    -0.15100
H1799       H  0.48315205  0.93185086  0.79089694     0.11000
H1800       H  0.45234381  0.95574783  0.70112740     0.11000
H1801       H  0.49297470  0.91606020  0.68108906     0.11000
H1802       H  0.51999149  0.88867528  0.77084601     0.11000
C1803       C  0.48106091  0.27055823  0.73149033    -0.15100
C1804       C  0.52794001  0.30741483  0.73094139     0.07000
C1805       C  0.56331308  0.30082111  0.71822002    -0.15100
C1806       C  0.55308252  0.25636834  0.70983850    -0.15100
C1807       C  0.50801772  0.21768447  0.71587185     0.07000
C1808       C  0.47107662  0.22554576  0.72385581    -0.15100
H1809       H  0.45303842  0.27577760  0.74011617     0.11000
H1810       H  0.59932504  0.32959298  0.71627304     0.11000
H1811       H  0.58191578  0.25137709  0.70272532     0.11000
H1812       H  0.43579013  0.19652725  0.72760127     0.11000
C1813       C  0.73497261  0.13105576  0.57930887    -0.15100
C1814       C  0.72645392  0.12254284  0.54851167     0.07000
C1815       C  0.76599106  0.14093548  0.52880573    -0.15100
C1816       C  0.81241321  0.16549850  0.53961923    -0.15100
C1817       C  0.82099201  0.17053912  0.57064639     0.07000
C1818       C  0.78124970  0.15351831  0.59022920    -0.15100
H1819       H  0.70560716  0.11997224  0.59503444     0.11000
H1820       H  0.76094184  0.13729630  0.50482453     0.11000
H1821       H  0.84163011  0.17793217  0.52373369     0.11000
H1822       H  0.78597566  0.15613327  0.61426832     0.11000
C1823       C  0.47713002  0.16888646  0.48556908    -0.15100
C1824       C  0.52252700  0.17884126  0.49318002     0.07000
C1825       C  0.56163749  0.22097960  0.98353487    -0.15100
C1826       C  0.55558394  0.25469920  0.96909640    -0.15100
C1827       C  0.51017464  0.24853942  0.96670814     0.07000
C1828       C  0.47093590  0.20396359  0.47240850    -0.15100
H1829       H  0.44663561  0.13520967  0.49130316     0.11000
H1830       H  0.59697255  0.22834298  0.98787500     0.11000
H1831       H  0.58670754  0.28817263  0.96378413     0.11000
H1832       H  0.43570805  0.19759499  0.46910711     0.11000
C1833       C  0.48202055  0.94619270  0.95119387    -0.15100
C1834       C  0.48764394  0.94542577  0.98250923     0.07000
C1835       C  0.44616113  0.91880636  0.00020832    -0.15100
C1836       C  0.40114264  0.89549620  0.98745320    -0.15100
C1837       C  0.39527775  0.89927382  0.95658073     0.07000
C1838       C  0.43659997  0.92416317  0.93853836    -0.15100
H1839       H  0.51254849  0.96629025  0.93661576     0.11000
H1840       H  0.44842577  0.91757398  0.52437928     0.11000
H1841       H  0.37055936  0.87458302  0.00188457     0.11000
H1842       H  0.43378528  0.92608777  0.91447882     0.11000
C1843       C  0.56448289  0.06229612  0.62276654    -0.15100
C1844       C  0.52994243  0.05984668  0.60331324     0.07000
C1845       C  0.48503598  0.04665352  0.61486980    -0.15100
C1846       C  0.47633865  0.04076857  0.64579466    -0.15100
C1847       C  0.51219479  0.04732867  0.66546995     0.07000
C1848       C  0.55552796  0.05568648  0.65368454    -0.15100
H1849       H  0.59924767  0.07163637  0.61417824     0.11000
H1850       H  0.45784316  0.04420418  0.60030869     0.11000
H1851       H  0.44240505  0.03388972  0.65451859     0.11000
H1852       H  0.58360182  0.06093580  0.66843225     0.11000
C1853       C  0.57084067  0.05292051  0.89273599    -0.15100
C1854       C  0.54421013  0.06324485  0.91303927     0.07000
C1855       C  0.51761931  0.08231476  0.90244158    -0.15100
C1856       C  0.51975209  0.09337092  0.87196471    -0.15100
C1857       C  0.54809258  0.08496057  0.85176177     0.07000
C1858       C  0.57244748  0.06329563  0.86225055    -0.15100
H1859       H  0.59205530  0.03862111  0.90075618     0.11000
H1860       H  0.49774960  0.09136015  0.91789809     0.11000
H1861       H  0.49979647  0.10923422  0.86427087     0.11000
H1862       H  0.59398542  0.05594671  0.84712158     0.11000
C1863       C  0.78145573  0.27860701  0.49506960    -0.15100
C1864       C  0.76711035  0.31222605  0.49480356     0.07000
C1865       C  0.72706511  0.30321302  0.97895730    -0.15100
C1866       C  0.69832452  0.25884987  0.96735331    -0.15100
C1867       C  0.70836921  0.22283422  0.97280432     0.07000
C1868       C  0.75236557  0.23419574  0.48381840    -0.15100
H1869       H  0.81352778  0.28540786  0.50589116     0.11000
H1870       H  0.71661547  0.32937912  0.97702064     0.11000
H1871       H  0.66501025  0.25090186  0.95790857     0.11000
H1872       H  0.76120112  0.20725157  0.48782446     0.11000
loop_ 
_geom_bond_atom_site_label_1 
_geom_bond_atom_site_label_2 
_geom_bond_distance 
_geom_bond_site_symmetry_2 
_ccdc_geom_bond_type 
O1           C16   1.273       .  A
O1         Al945   1.947       .  S
C2           O12   1.273       .  A
C2          O939   1.256       .  A
C2          C931   1.459       .  S
O3          C938   1.256       .  A
O3           Al5   1.860   1_556  S
O4            C6   1.260       .  A
O4           Al5   1.915       .  S
Al5          O13   1.918       .  S
Al5          O15   1.860       .  S
Al5          O14   1.754       .  S
C6           O19   1.244   1_554  A
C6          C888   1.457   1_554  S
O7           C17   1.274       .  A
O7           Al9   1.963       .  S
O8           C21   1.280   1_545  A
O8          Al18   2.034       .  S
Al9          O22   1.864       .  S
Al9         O937   1.947       .  S
Al9         O955   1.856       .  S
Al9         O950   1.772       .  S
O10          C17   1.254       .  A
O10         Al18   1.836       .  S
O11          C20   1.286       .  A
O11        Al954   1.963   1_554  S
O12         Al18   1.962       .  S
O13          C20   1.264       .  A
O14        Al945   1.772       .  S
O14        Al954   1.795   1_554  S
O15          C16   1.258       .  A
C16         C908   1.471       .  S
C17         C918   1.459       .  S
Al18        O947   1.963       .  S
Al18        O950   1.795       .  S
O19        Al945   1.856   1_556  S
C20         C878   1.500       .  S
C21          O22   1.244   1_565  A
C21         C898   1.520       .  S
O23          C38   1.286       .  A
O23         Al31   1.962       .  S
C24          O34   1.244       .  A
C24          O25   1.259       .  A
C24         C848   1.450       .  S
O25         Al27   1.906       .  S
O26          C28   1.258       .  A
O26         Al27   1.864       .  S
Al27         O35   1.860       .  S
Al27         O37   1.910       .  S
Al27         O36   1.755       .  S
C28          O41   1.273       .  A
C28         C871   1.468       .  S
O29          C39   1.257       .  A
O29         Al31   1.850       .  S
O30          C43   1.241   1_545  A
O30         Al40   1.863       .  S
Al31         O44   2.036       .  S
Al31         O41   1.967       .  S
Al31         O36   1.795       .  S
O32          C39   1.275       .  A
O32         Al40   1.962       .  S
O33          C42   1.270       .  A
O33         Al40   1.934       .  S
O34         Al40   1.853       .  S
O35          C42   1.257       .  A
O36         Al40   1.770       .  S
O37          C38   1.263       .  A
C38         C838   1.495       .  S
C39         C911   1.468       .  S
C42         C921   1.470       .  S
C43          O44   1.279   1_565  A
C43         C858   1.516       .  S
O45          C60   1.268       .  A
O45        Al989   1.928   1_554  S
C46          O56   1.272       .  A
C46         O983   1.253       .  A
C46         C891   1.469       .  S
O47         C982   1.253       .  A
O47         Al49   1.862   1_556  S
O48          C50   1.261   1_554  A
O48         Al49   1.914       .  S
Al49         O57   1.933       .  S
Al49         O59   1.871       .  S
Al49        O994   1.746   1_554  S
C50          O63   1.246       .  A
C50         C798   1.460       .  S
O51          C61   1.276       .  A
O51         Al53   1.961       .  S
O52          C65   1.275       .  A
O52         Al62   2.020       .  S
Al53         O66   1.865       .  S
Al53        O981   1.928       .  S
Al53        O999   1.862       .  S
Al53         O58   1.762       .  S
O54          C61   1.259       .  A
O54         Al62   1.852       .  S
O55        C1000   1.283       .  A
O55         Al62   1.952       .  S
O56         Al62   1.972       .  S
O57          C64   1.269       .  A
O58         Al62   1.801       .  S
O58        Al985   1.746       .  S
O59          C60   1.258       .  A
C60         C818   1.471       .  S
C61         C828   1.466       .  S
O63        Al989   1.862       .  S
C64         O991   1.283       .  A
C64         C788   1.493       .  S
C65          O66   1.240       .  A
C65         C808   1.501       .  S
O67          C82   1.285       .  A
O67         Al75   1.961       .  S
C68          O78   1.246       .  A
C68          O69   1.259       .  A
C68         C868   1.458       .  S
O69         Al71   1.910       .  S
O70          C72   1.256       .  A
O70         Al71   1.863       .  S
Al71         O79   1.872       .  S
Al71         O81   1.919       .  S
Al71         O80   1.754       .  S
C72          O85   1.269       .  A
C72         C778   1.460       .  S
O73          C83   1.257       .  A
O73         Al75   1.849       .  S
O74          C87   1.244       .  A
O74         Al84   1.866       .  S
Al75         O88   2.017       .  S
Al75         O85   1.954       .  S
Al75         O80   1.801       .  S
O76          C83   1.274       .  A
O76         Al84   1.957       .  S
O77          C86   1.270       .  A
O77         Al84   1.934       .  S
O78         Al84   1.862       .  S
O79          C86   1.259       .  A
O80         Al84   1.772       .  S
O81          C82   1.265       .  A
C82         C761   1.497       .  S
C83         C821   1.465       .  S
C86         C831   1.473       .  S
C87          O88   1.275       .  A
C87         C768   1.509       .  S
O89         C104   1.289       .  A
O89         Al97   1.965       .  S
C90         O100   1.242       .  A
C90          O91   1.255       .  A
C90         C781   1.455       .  S
O91         Al93   1.895       .  S
O92          C94   1.255       .  A
O92         Al93   1.870       .  S
Al93        O101   1.882       .  S
Al93        O103   1.911       .  S
Al93        O102   1.761       .  S
C94         O107   1.265       .  A
C94         C851   1.461       .  S
O95         C105   1.260       .  A
O95         Al97   1.857       .  S
O96         C109   1.243       .  A
O96        Al106   1.867       .  S
Al97        O110   2.007       .  S
Al97        O107   1.939       .  S
Al97        O102   1.807       .  S
O98         C105   1.276       .  A
O98        Al106   1.960       .  S
O99         C108   1.271       .  A
O99        Al106   1.933       .  S
O100       Al106   1.851       .  S
O101        C108   1.260       .  A
O102       Al106   1.773       .  S
O103        C104   1.265       .  A
C104        C718   1.496       .  S
C105        C748   1.467       .  S
C108        C738   1.485       .  S
C109        O110   1.272       .  A
C109        C731   1.512   1_655  S
O111        C126   1.268       .  A
O111      Al1055   1.902       .  S
C112        O122   1.258       .  A
C112       O1049   1.253       .  A
C112        C801   1.452       .  S
O113       C1048   1.253   1_554  A
O113       Al115   1.857       .  S
O114        C116   1.257       .  A
O114       Al115   1.928       .  S
Al115       O123   1.887       .  S
Al115       O125   1.922       .  S
Al115       O124   1.773       .  S
C116        O129   1.244       .  A
C116        C928   1.468   1_554  S
O117        C127   1.277       .  A
O117       Al119   1.938       .  S
O118        C131   1.282       .  A
O118       Al128   1.986       .  S
Al119       O132   1.804       .  S
Al119      O1047   1.902       .  S
Al119      O1065   1.867       .  S
Al119      O1060   1.782       .  S
O120        C127   1.268       .  A
O120       Al128   1.906       .  S
O121       C1066   1.278       .  A
O121       Al128   1.971       .  S
O122       Al128   1.913       .  S
O123        C130   1.260       .  A
O124      Al1055   1.782       .  S
O124      Al1064   1.788   1_554  S
O125        C126   1.270       .  A
C126        C751   1.472       .  S
C127        C741   1.483       .  S
Al128      O1060   1.788       .  S
O129      Al1055   1.867       .  S
C130       O1057   1.278       .  A
C130        C698   1.503       .  S
C131        O132   1.240       .  A
C131        C708   1.479   1_655  S
O133        C148   1.267       .  A
O133       Al141   1.905       .  S
C134        O144   1.258       .  A
C134        O135   1.254       .  A
C134        C688   1.453       .  S
O135       Al137   1.867       .  S
O136        C138   1.258       .  A
O136       Al137   1.918       .  S
Al137       O145   1.893       .  S
Al137       O147   1.914       .  S
Al137       O146   1.775       .  S
C138        O151   1.248       .  A
C138        C648   1.471       .  S
O139        C149   1.275       .  A
O139       Al141   1.936       .  S
O140        C153   1.284       .  A
O140       Al150   1.983       .  S
Al141       O154   1.815       .  S
Al141       O151   1.879       .  S
Al141       O146   1.782       .  S
O142        C149   1.265       .  A
O142       Al150   1.901       .  S
O143        C152   1.279       .  A
O143       Al150   1.982       .  S
O144       Al150   1.914       .  S
O145        C152   1.261       .  A
O146       Al150   1.786       .  S
O147        C148   1.268       .  A
C148        C668   1.472       .  S
C149        C678   1.480       .  S
C152        C861   1.506       .  S
C153        O154   1.243       .  A
C153        C658   1.481       .  S
O155        C170   1.284       .  A
O155       Al163   1.951       .  S
C156        O166   1.245       .  A
C156        O157   1.258       .  A
C156        C621   1.459       .  S
O157       Al159   1.901       .  S
O158        C160   1.256       .  A
O158       Al159   1.864       .  S
Al159       O167   1.868       .  S
Al159       O169   1.914       .  S
Al159       O168   1.757       .  S
C160        O173   1.269       .  A
C160        C638   1.463       .  S
O161        C171   1.257       .  A
O161       Al163   1.847       .  S
O162        C175   1.244       .  A
O162       Al172   1.868       .  S
Al163       O176   2.011       .  S
Al163       O173   1.955       .  S
Al163       O168   1.803       .  S
O164        C171   1.276       .  A
O164       Al172   1.963       .  S
O165        C174   1.273       .  A
O165       Al172   1.945       .  S
O166       Al172   1.864       .  S
O167        C174   1.258       .  A
O168       Al172   1.769       .  S
O169        C170   1.265       .  A
C170        C811   1.489       .  S
C171        C671   1.462       .  S
C174       C1617   1.482       .  S
C175        O176   1.274       .  A
C175        C628   1.510       .  S
O177        C192   1.287       .  A
O177       Al185   1.966       .  S
C178        O188   1.246       .  A
C178        O179   1.258       .  A
C178        C641   1.454       .  S
O179       Al181   1.902       .  S
O180        C182   1.258       .  A
O180       Al181   1.867       .  S
Al181       O189   1.868       .  S
Al181       O191   1.902       .  S
Al181       O190   1.754       .  S
C182        O195   1.272       .  A
C182        C608   1.466       .  S
O183        C193   1.259       .  A
O183       Al185   1.855       .  S
O184        C197   1.241       .  A
O184       Al194   1.863       .  S
Al185       O198   2.035       .  S
Al185       O195   1.962       .  S
Al185       O190   1.800       .  S
O186        C193   1.274       .  A
O186       Al194   1.954       .  S
O187        C196   1.269       .  A
O187       Al194   1.931       .  S
O188       Al194   1.863       .  S
O189        C196   1.258       .  A
O190       Al194   1.768       .  S
O191        C192   1.262       .  A
C192        C711   1.493       .  S
C193        C598   1.466       .  S
C196       C1524   1.476       .  S
C197        O198   1.278       .  A
C197        C578   1.515       .  S
O199        C214   1.270       .  A
O199       Al207   1.938       .  S
C200        O210   1.273       .  A
C200        O201   1.254       .  A
C200        C651   1.463       .  S
O201       Al203   1.861       .  S
O202        C204   1.261       .  A
O202       Al203   1.916       .  S
Al203       O211   1.923       .  S
Al203       O213   1.866       .  S
Al203       O212   1.748       .  S
C204        O217   1.245       .  A
C204        C558   1.454       .  S
O205        C215   1.274       .  A
O205       Al207   1.960       .  S
O206        C219   1.279       .  A
O206       Al216   2.029       .  S
Al207       O220   1.866       .  S
Al207       O217   1.857       .  S
Al207       O212   1.768       .  S
O208        C215   1.255       .  A
O208       Al216   1.848       .  S
O209        C218   1.284       .  A
O209       Al216   1.955       .  S
O210       Al216   1.967       .  S
O211        C218   1.266       .  A
O212       Al216   1.799       .  S
O213        C214   1.258       .  A
C214        C601   1.469       .  S
C215        C591   1.461       .  S
C218        C771   1.497       .  S
C219        O220   1.243       .  A
C219        C568   1.508       .  S
O221        C236   1.268       .  A
O221       Al229   1.933       .  S
C222        O232   1.272       .  A
C222        O223   1.257       .  A
C222        C561   1.466       .  S
O223       Al225   1.861       .  S
O224        C226   1.262       .  A
O224       Al225   1.918       .  S
Al225       O233   1.920       .  S
Al225       O235   1.870       .  S
Al225       O234   1.753       .  S
C226        O239   1.248       .  A
C226        C691   1.462       .  S
O227        C237   1.274       .  A
O227       Al229   1.957       .  S
O228        C241   1.277       .  A
O228       Al238   2.025       .  S
Al229       O242   1.864       .  S
Al229       O239   1.865       .  S
Al229       O234   1.768       .  S
O230        C237   1.260       .  A
O230       Al238   1.864       .  S
O231        C240   1.285       .  A
O231       Al238   1.962       .  S
O232       Al238   1.965       .  S
O233        C240   1.265       .  A
O234       Al238   1.798       .  S
O235        C236   1.258       .  A
C236        C538   1.472       .  S
C237        C548   1.471       .  S
C240        C728   1.497       .  S
C241        O242   1.241       .  A
C241        C528   1.506       .  S
O243        C258   1.287       .  A
O243       Al251   1.968       .  S
C244        O254   1.245       .  A
C244        O245   1.260       .  A
C244        C611   1.456       .  S
O245       Al247   1.914       .  S
O246        C248   1.256       .  A
O246       Al247   1.866       .  S
Al247       O255   1.871       .  S
Al247       O257   1.926       .  S
Al247       O256   1.752       .  S
C248        O261   1.271       .  A
C248        C618   1.466       .  S
O249        C259   1.257       .  A
O249       Al251   1.849       .  S
O250        C263   1.243       .  A
O250       Al260   1.864       .  S
Al251       O264   2.031       .  S
Al251       O261   1.962       .  S
Al251       O256   1.799       .  S
O252        C259   1.275       .  A
O252       Al260   1.963       .  S
O253        C262   1.271       .  A
O253       Al260   1.942       .  S
O254       Al260   1.860       .  S
O255        C262   1.259       .  A
O256       Al260   1.773       .  S
O257        C258   1.266       .  A
C258        C901   1.505       .  S
C259        C541   1.467       .  S
C262       C1487   1.475       .  S
C263        O264   1.279       .  A
C263        C518   1.515       .  S
O265        C280   1.267       .  A
O265       Al273   1.904       .  S
C266        O276   1.260       .  A
C266        O267   1.254       .  A
C266        C508   1.455       .  S
O267       Al269   1.859       .  S
O268        C270   1.256       .  A
O268       Al269   1.914       .  S
Al269       O277   1.896       .  S
Al269       O279   1.916       .  S
Al269       O278   1.775       .  S
C270        O283   1.245       .  A
C270        C478   1.467   1_545  S
O271        C281   1.276       .  A
O271       Al273   1.943       .  S
O272        C285   1.285       .  A
O272       Al282   1.990       .  S
Al273       O286   1.809       .  S
Al273       O283   1.873       .  S
Al273       O278   1.783       .  S
O274        C281   1.266       .  A
O274       Al282   1.903       .  S
O275        C284   1.278       .  A
O275       Al282   1.981       .  S
O276       Al282   1.922       .  S
O277        C284   1.262       .  A
O278       Al282   1.782       .  S
O279        C280   1.269       .  A
C280        C488   1.472       .  S
C281        C498   1.483       .  S
C284        C581   1.509       .  S
C285        O286   1.243       .  A
C285        C841   1.480       .  S
O287        C302   1.284       .  A
O287       Al295   1.956   1_565  S
C288        O298   1.244       .  A
C288        O289   1.257       .  A
C288        C458   1.460       .  S
O289       Al291   1.904       .  S
O290        C292   1.255       .  A
O290       Al291   1.864   1_565  S
Al291       O299   1.876       .  S
Al291       O301   1.922   1_545  S
Al291       O300   1.760       .  S
C292        O305   1.268       .  A
C292        C468   1.462       .  S
O293        C303   1.259       .  A
O293       Al295   1.852       .  S
O294        C307   1.244       .  A
O294       Al304   1.867       .  S
Al295       O308   2.002       .  S
Al295       O305   1.952   1_545  S
Al295       O300   1.806       .  S
O296        C303   1.276       .  A
O296       Al304   1.962       .  S
O297        C306   1.273       .  A
O297       Al304   1.940       .  S
O298       Al304   1.861       .  S
O299        C306   1.259       .  A
O300       Al304   1.774       .  S
O301        C302   1.266       .  A
C302        C531   1.494       .  S
C303       C1427   1.462   1_554  S
C306        C501   1.485       .  S
C307        O308   1.272       .  A
C307        C791   1.510       .  S
O309        C324   1.270       .  A
O309       Al317   1.940       .  S
C310        O320   1.271       .  A
C310        O311   1.254   1_455  A
C310        C481   1.461       .  S
O311       Al313   1.858       .  S
O312        C314   1.261       .  A
O312       Al313   1.920       .  S
Al313       O321   1.934   1_655  S
Al313       O323   1.872       .  S
Al313       O322   1.751       .  S
C314        O327   1.245       .  A
C314        C428   1.461       .  S
O315        C325   1.276       .  A
O315       Al317   1.965       .  S
O316        C329   1.277       .  A
O316       Al326   2.025       .  S
Al317       O330   1.863       .  S
Al317       O327   1.856       .  S
Al317       O322   1.768       .  S
O318        C325   1.256       .  A
O318       Al326   1.848       .  S
O319        C328   1.285   1_655  A
O319       Al326   1.958       .  S
O320       Al326   1.961   1_455  S
O321        C328   1.268       .  A
O322       Al326   1.802       .  S
O323        C324   1.259       .  A
C324        C438   1.476       .  S
C325        C448   1.465       .  S
C328        C521   1.502       .  S
C329        O330   1.242       .  A
C329        C758   1.511       .  S
O331        C346   1.287       .  A
O331       Al339   1.966       .  S
C332        O342   1.245       .  A
C332        O333   1.258       .  A
C332        C471   1.454       .  S
O333       Al335   1.903       .  S
O334        C336   1.258       .  A
O334       Al335   1.868       .  S
Al335       O343   1.871       .  S
Al335       O345   1.909       .  S
Al335       O344   1.752       .  S
C336        O349   1.269       .  A
C336        C418   1.462       .  S
O337        C347   1.259       .  A
O337       Al339   1.857       .  S
O338        C351   1.239       .  A
O338       Al348   1.862       .  S
Al339       O352   2.024       .  S
Al339       O349   1.951       .  S
Al339       O344   1.802       .  S
O340        C347   1.276       .  A
O340       Al348   1.961       .  S
O341        C350   1.269       .  A
O341       Al348   1.931       .  S
O342       Al348   1.860       .  S
O343        C350   1.258       .  A
O344       Al348   1.767       .  S
O345        C346   1.263       .  A
C346        C661   1.494       .  S
C347       C1377   1.471   1_554  S
C350        C451   1.476       .  S
C351        O352   1.275       .  A
C351        C701   1.506       .  S
O353        C368   1.268       .  A
O353       Al361   1.900       .  S
C354        O364   1.258       .  A
C354        O355   1.251       .  A
C354        C431   1.453       .  S
O355       Al357   1.844   1_565  S
O356        C358   1.258       .  A
O356       Al357   1.937       .  S
Al357       O365   1.894   1_545  S
Al357       O367   1.919       .  S
Al357       O366   1.774       .  S
C358        O371   1.247       .  A
C358        C511   1.477       .  S
O359        C369   1.275       .  A
O359       Al361   1.924       .  S
O360        C373   1.281       .  A
O360       Al370   1.984       .  S
Al361       O374   1.806       .  S
Al361       O371   1.875       .  S
Al361       O366   1.781       .  S
O362        C369   1.267       .  A
O362       Al370   1.901       .  S
O363        C372   1.279       .  A
O363       Al370   1.973   1_565  S
O364       Al370   1.917   1_565  S
O365        C372   1.262       .  A
O366       Al370   1.790       .  S
O367        C368   1.269       .  A
C368        C398   1.473       .  S
C369        C408   1.473       .  S
C372        C631   1.501       .  S
C373        O374   1.240       .  A
C373        C721   1.482       .  S
O375        C390   1.289   1_655  A
O375       Al383   1.958       .  S
C376        O386   1.243       .  A
C376        O377   1.255       .  A
C376        C421   1.453   1_545  S
O377       Al379   1.888       .  S
O378        C380   1.252   1_655  A
O378       Al379   1.869       .  S
Al379       O387   1.865       .  S
Al379       O389   1.915   1_655  S
Al379       O388   1.754       .  S
C380        O393   1.267       .  A
C380        C461   1.467       .  S
O381        C391   1.261       .  A
O381       Al383   1.855       .  S
O382        C395   1.242       .  A
O382       Al392   1.867       .  S
Al383       O396   2.019       .  S
Al383       O393   1.963   1_655  S
Al383       O388   1.808       .  S
O384        C391   1.278       .  A
O384       Al392   1.962       .  S
O385        C394   1.269       .  A
O385       Al392   1.929       .  S
O386       Al392   1.853       .  S
O387        C394   1.257       .  A
O388       Al392   1.772       .  S
O389        C390   1.267       .  A
C390        C571   1.491       .  S
C391       C1337   1.458   1_554  S
C394        C411   1.477       .  S
C395        O396   1.273       .  A
C395        C881   1.516       .  S
C397        C398   1.402       .  A
C397        C402   1.397       .  A
C397        H403   1.083       .  S
C398        C399   1.408       .  A
C399        C400   1.395       .  A
C399        H404   1.083       .  S
C400        C401   1.398       .  A
C400        H405   1.084       .  S
C401       C1327   1.458       .  S
C401        C402   1.403       .  A
C402        H406   1.083       .  S
C407        C408   1.409       .  A
C407        C412   1.394       .  A
C407        H413   1.083       .  S
C408        C409   1.400       .  A
C409        C410   1.397       .  A
C409        H414   1.083       .  S
C410        C411   1.411       .  A
C410        H415   1.083       .  S
C411        C412   1.400       .  A
C412        H416   1.083       .  S
C417        C418   1.403       .  A
C417        C422   1.386       .  A
C417        H423   1.084       .  S
C418        C419   1.404       .  A
C419        C420   1.397       .  A
C419        H424   1.079       .  S
C420        C421   1.401       .  A
C420        H425   1.083       .  S
C421        C422   1.399       .  A
C422        H426   1.084   1_565  S
C427        C428   1.399       .  A
C427        C432   1.392       .  A
C427        H433   1.083       .  S
C428        C429   1.403       .  A
C429        C430   1.398       .  A
C429        H434   1.083       .  S
C430        C431   1.403       .  A
C430        H435   1.081       .  S
C431        C432   1.404       .  A
C432        H436   1.084       .  S
C437        C438   1.409       .  A
C437        C442   1.398       .  A
C437        H443   1.083       .  S
C438        C439   1.401       .  A
C439        C440   1.398       .  A
C439        H444   1.083       .  S
C440        C441   1.408       .  A
C440        H445   1.083       .  S
C441       C1283   1.471       .  S
C441        C442   1.399       .  A
C442        H446   1.083       .  S
C447        C448   1.398       .  A
C447        C452   1.398       .  A
C447        H453   1.083       .  S
C448        C449   1.407       .  A
C449        C450   1.396       .  A
C449        H454   1.084       .  S
C450        C451   1.401       .  A
C450        H455   1.083       .  S
C451        C452   1.410       .  A
C452        H456   1.083       .  S
C457        C458   1.402       .  A
C457        C462   1.399       .  A
C457        H463   1.083       .  S
C458        C459   1.399       .  A
C459        C460   1.389       .  A
C459        H464   1.083       .  S
C460        C461   1.405       .  A
C460        H465   1.084       .  S
C461        C462   1.404       .  A
C462        H466   1.079       .  S
C467        C468   1.403       .  A
C467        C472   1.397       .  A
C467        H473   1.079       .  S
C468        C469   1.405       .  A
C469        C470   1.388       .  A
C469        H474   1.084       .  S
C470        C471   1.398   1_455  A
C470        H475   1.084   1_455  S
C471        C472   1.401   1_655  A
C472        H476   1.083       .  S
C477        C478   1.407       .  A
C477        C482   1.394       .  A
C477        H483   1.083       .  S
C478        C479   1.398       .  A
C479        C480   1.390       .  A
C479        H484   1.077   1_565  S
C480        C481   1.406       .  A
C480        H485   1.084       .  S
C481        C482   1.399       .  A
C482        H486   1.080       .  S
C487        C488   1.407       .  A
C487        C492   1.396       .  A
C487        H493   1.083       .  S
C488        C489   1.401       .  A
C489        C490   1.398       .  A
C489        H494   1.083       .  S
C490        C491   1.406       .  A
C490        H495   1.083       .  S
C491       C1239   1.462       .  S
C491        C492   1.398       .  A
C492        H496   1.084       .  S
C497        C498   1.402       .  A
C497        C502   1.404       .  A
C497        H503   1.083       .  S
C498        C499   1.410       .  A
C499        C500   1.395       .  A
C499        H504   1.083       .  S
C500        C501   1.400       .  A
C500        H505   1.083       .  S
C501        C502   1.413       .  A
C502        H506   1.083       .  S
C507        C508   1.405       .  A
C507        C512   1.401       .  A
C507        H513   1.079       .  S
C508        C509   1.397       .  A
C509        C510   1.392       .  A
C509        H514   1.082       .  S
C510        C511   1.409   1_455  A
C510        H515   1.083       .  S
C511        C512   1.402   1_655  A
C512        H516   1.083   1_455  S
C517        C518   1.411       .  A
C517        C522   1.415       .  A
C517        H523   1.082       .  S
C518        C519   1.415       .  A
C519        C520   1.412       .  A
C519        H524   1.083       .  S
C520        C521   1.406       .  A
C520        H525   1.083       .  S
C521        C522   1.410       .  A
C522        H526   1.082       .  S
C527        C528   1.409       .  A
C527        C532   1.412       .  A
C527        H533   1.082       .  S
C528        C529   1.414       .  A
C529        C530   1.410       .  A
C529        H534   1.083       .  S
C530        C531   1.405       .  A
C530        H535   1.083       .  S
C531        C532   1.408       .  A
C532        H536   1.081       .  S
C537        C538   1.399       .  A
C537        C542   1.395       .  A
C537        H543   1.083       .  S
C538        C539   1.409       .  A
C539        C540   1.398       .  A
C539        H544   1.083       .  S
C540        C541   1.398       .  A
C540        H545   1.083       .  S
C541        C542   1.407       .  A
C542        H546   1.084       .  S
C547        C548   1.399       .  A
C547        C552   1.397       .  A
C547        H553   1.083       .  S
C548        C549   1.407       .  A
C549        C550   1.398       .  A
C549        H554   1.083       .  S
C550        C551   1.401       .  A
C550        H555   1.083       .  S
C551       C1198   1.475   1_554  S
C551        C552   1.409       .  A
C552        H556   1.083       .  S
C557        C558   1.401       .  A
C557        C562   1.400       .  A
C557        H563   1.083       .  S
C558        C559   1.395       .  A
C559        C560   1.385       .  A
C559        H564   1.079       .  S
C560        C561   1.403       .  A
C560        H565   1.084       .  S
C561        C562   1.405       .  A
C562        H566   1.077       .  S
C567        C568   1.413       .  A
C567        C572   1.409       .  A
C567        H573   1.084       .  S
C568        C569   1.409       .  A
C569        C570   1.412       .  A
C569        H574   1.081       .  S
C570        C571   1.407       .  A
C570        H575   1.083       .  S
C571        C572   1.406       .  A
C572        H576   1.083       .  S
C577        C578   1.411       .  A
C577        C582   1.416       .  A
C577        H583   1.082       .  S
C578        C579   1.414       .  A
C579        C580   1.412       .  A
C579        H584   1.083       .  S
C580        C581   1.408       .  A
C580        H585   1.083       .  S
C581        C582   1.412       .  A
C582        H586   1.082       .  S
C587        C588   1.410       .  A
C587        C592   1.397       .  A
C587        H593   1.083       .  S
C588       C1132   1.476   1_554  S
C588        C589   1.402       .  A
C589        C590   1.396       .  A
C589        H594   1.083       .  S
C590        C591   1.405       .  A
C590        H595   1.084       .  S
C591        C592   1.397       .  A
C592        H596   1.084       .  S
C597        C598   1.398       .  A
C597        C602   1.395       .  A
C597        H603   1.083       .  S
C598        C599   1.407       .  A
C599        C600   1.395       .  A
C599        H604   1.083       .  S
C600        C601   1.400       .  A
C600        H605   1.083       .  S
C601        C602   1.408       .  A
C602        H606   1.083       .  S
C607        C608   1.404       .  A
C607        C612   1.387       .  A
C607        H613   1.084       .  S
C608        C609   1.405       .  A
C609        C610   1.400       .  A
C609        H614   1.079       .  S
C610        C611   1.402       .  A
C610        H615   1.083       .  S
C611        C612   1.397       .  A
C612        H616   1.082       .  S
C617        C618   1.405       .  A
C617        C622   1.387       .  A
C617        H623   1.083       .  S
C618        C619   1.404       .  A
C619        C620   1.400       .  A
C619        H624   1.081       .  S
C620        C621   1.403       .  A
C620        H625   1.083       .  S
C621        C622   1.398       .  A
C622        H626   1.083       .  S
C627        C628   1.413       .  A
C627        C632   1.410       .  A
C627        H633   1.083       .  S
C628        C629   1.409       .  A
C629        C630   1.412       .  A
C629        H634   1.082       .  S
C630        C631   1.409       .  A
C630        H635   1.080       .  S
C631        C632   1.406       .  A
C632        H636   1.083       .  S
C637        C638   1.405       .  A
C637        C642   1.388       .  A
C637        H643   1.083       .  S
C638        C639   1.403       .  A
C639        C640   1.397       .  A
C639        H644   1.080       .  S
C640        C641   1.401       .  A
C640        H645   1.083       .  S
C641        C642   1.398       .  A
C642        H646   1.084       .  S
C647        C648   1.398       .  A
C647        C652   1.391       .  A
C647        H653   1.080       .  S
C648        C649   1.409       .  A
C649        C650   1.395       .  A
C649        H654   1.083       .  S
C650        C651   1.399       .  A
C650        H655   1.081       .  S
C651        C652   1.406       .  A
C652        H656   1.081       .  S
C657        C658   1.413       .  A
C657        C662   1.414       .  A
C657        H663   1.083       .  S
C658        C659   1.411       .  A
C659        C660   1.408       .  A
C659        H664   1.083       .  S
C660        C661   1.404       .  A
C660        H665   1.081       .  S
C661        C662   1.409       .  A
C662        H666   1.083       .  S
C667        C668   1.401       .  A
C667        C672   1.399       .  A
C667        H673   1.083       .  S
C668        C669   1.407       .  A
C669        C670   1.395       .  A
C669        H674   1.083       .  S
C670        C671   1.397       .  A
C670        H675   1.084       .  S
C671        C672   1.407       .  A
C672        H676   1.084       .  S
C677        C678   1.400       .  A
C677        C682   1.400       .  A
C677        H683   1.083       .  S
C678        C679   1.411       .  A
C679        C680   1.396       .  A
C679        H684   1.083       .  S
C680        C681   1.400       .  A
C680        H685   1.083       .  S
C681       C1110   1.482   1_554  S
C681        C682   1.412       .  A
C682        H686   1.083       .  S
C687        C688   1.401       .  A
C687        C692   1.397       .  A
C687        H693   1.082       .  S
C688        C689   1.402       .  A
C689        C690   1.393       .  A
C689        H694   1.081       .  S
C690        C691   1.399       .  A
C690        H695   1.084       .  S
C691        C692   1.403       .  A
C692        H696   1.083       .  S
C697        C698   1.408       .  A
C697        C702   1.410       .  A
C697        H703   1.083       .  S
C698        C699   1.409       .  A
C699        C700   1.412       .  A
C699        H704   1.082       .  S
C700        C701   1.410       .  A
C700        H705   1.081       .  S
C701        C702   1.412       .  A
C702        H706   1.083       .  S
C707        C708   1.412       .  A
C707        C712   1.414       .  A
C707       H1649   1.083       .  S
C708        C709   1.412       .  A
C709        C710   1.408       .  A
C709        H714   1.084       .  S
C710        C711   1.403       .  A
C710        H715   1.082       .  S
C711        C712   1.410       .  A
C712        H716   1.083       .  S
H713       C1643   1.083       .  S
C717        C718   1.404       .  A
C717        C722   1.409       .  A
C717        H723   1.081       .  S
C718        C719   1.409       .  A
C719        C720   1.414       .  A
C719        H724   1.083       .  S
C720        C721   1.412       .  A
C720        H725   1.083       .  S
C721        C722   1.413       .  A
C722        H726   1.083       .  S
C727        C728   1.407       .  A
C727        C732   1.413       .  A
C727        H733   1.083       .  S
C728        C729   1.406       .  A
C729        C730   1.410       .  A
C729        H734   1.080       .  S
C730        C731   1.409       .  A
C730        H735   1.081       .  S
C731        C732   1.414       .  A
C732        H736   1.083       .  S
C737        C738   1.412       .  A
C737        C742   1.404       .  A
C737        H743   1.083       .  S
C738        C739   1.401       .  A
C739        C740   1.396       .  A
C739        H744   1.083       .  S
C740        C741   1.410       .  A
C740        H745   1.083       .  S
C741        C742   1.402       .  A
C742        H746   1.083       .  S
C747        C748   1.400       .  A
C747        C752   1.399       .  A
C747        H753   1.084       .  S
C748        C749   1.406       .  A
C749        C750   1.397       .  A
C749        H754   1.083       .  S
C750        C751   1.400       .  A
C750        H755   1.083       .  S
C751        C752   1.407       .  A
C752        H756   1.084       .  S
C757        C758   1.414       .  A
C757        C762   1.410       .  A
C757        H763   1.083       .  S
C758        C759   1.410       .  A
C759        C760   1.414       .  A
C759        H764   1.082       .  S
C760        C761   1.409       .  A
C760        H765   1.082       .  S
C761        C762   1.406       .  A
C762        H766   1.083       .  S
C767        C768   1.411       .  A
C767        C772   1.414       .  A
C767        H773   1.082       .  S
C768        C769   1.412       .  A
C769        C770   1.409       .  A
C769        H774   1.083       .  S
C770        C771   1.406       .  A
C770        H775   1.083       .  S
C771        C772   1.409       .  A
C772        H776   1.083       .  S
C777        C778   1.404       .  A
C777        C782   1.388       .  A
C777        H783   1.084       .  S
C778        C779   1.403       .  A
C779        C780   1.396       .  A
C779        H784   1.080       .  S
C780        C781   1.401       .  A
C780        H785   1.083       .  S
C781        C782   1.399       .  A
C782        H786   1.084       .  S
C787        C788   1.404       .  A
C787        C792   1.411       .  A
C787        H793   1.083       .  S
C788        C789   1.407       .  A
C789        C790   1.409       .  A
C789       H1730   1.079       .  S
C790        C791   1.408       .  A
C790        H795   1.082       .  S
C791        C792   1.415       .  A
C792        H796   1.083       .  S
H794       C1725   1.079       .  S
C797        C802   1.397       .  A
C797       C1734   1.401       .  A
C797        H803   1.083       .  S
C798        C799   1.399       .  A
C798       C1733   1.401       .  A
C799        C800   1.392       .  A
C799        H804   1.084       .  S
C800       C1737   1.402       .  A
C800        H805   1.084       .  S
C801        C802   1.403       .  A
C801       C1736   1.402       .  A
C802        H806   1.081       .  S
C807        C808   1.408       .  A
C807        C812   1.409       .  A
C807        H813   1.082       .  S
C808        C809   1.413       .  A
C809        C810   1.408       .  A
C809       H1750   1.083       .  S
C810        C811   1.405       .  A
C810        H815   1.083       .  S
C811        C812   1.407       .  A
C812        H816   1.082       .  S
H814       C1745   1.083       .  S
C817        C818   1.399       .  A
C817        C822   1.393       .  A
C817        H823   1.083       .  S
C818        C819   1.410       .  A
C819        C820   1.398       .  A
C819        H824   1.083       .  S
C820        C821   1.399       .  A
C820        H825   1.083       .  S
C821        C822   1.406       .  A
C822        H826   1.084       .  S
C827        C828   1.406       .  A
C827        C832   1.395       .  A
C827        H833   1.084       .  S
C828        C829   1.399       .  A
C829        C830   1.398       .  A
C829        H834   1.083       .  S
C830        C831   1.409       .  A
C830        H835   1.083       .  S
C831        C832   1.400       .  A
C832        H836   1.083       .  S
C837        C838   1.403       .  A
C837        C842   1.408       .  A
C837        H843   1.082       .  S
C838        C839   1.409       .  A
C839        C840   1.415       .  A
C839        H844   1.083       .  S
C840        C841   1.414       .  A
C840        H845   1.083       .  S
C841        C842   1.412       .  A
C842        H846   1.084       .  S
C847        C848   1.400       .  A
C847        C852   1.396       .  A
C847        H853   1.083       .  S
C848        C849   1.397       .  A
C849        C850   1.386       .  A
C849        H854   1.082       .  S
C850        C851   1.404       .  A
C850        H855   1.084       .  S
C851        C852   1.403       .  A
C852        H856   1.080       .  S
C857        C858   1.415       .  A
C857        C862   1.411       .  A
C857        H863   1.083       .  S
C858        C859   1.410       .  A
C859        C860   1.415       .  A
C859        H864   1.082       .  S
C860        C861   1.411       .  A
C860        H865   1.082       .  S
C861        C862   1.407       .  A
C862        H866   1.083       .  S
C867        C868   1.402       .  A
C867        C872   1.399       .  A
C867        H873   1.083       .  S
C868        C869   1.398       .  A
C869        C870   1.388       .  A
C869        H874   1.084       .  S
C870        C871   1.405       .  A
C870        H875   1.083       .  S
C871        C872   1.404       .  A
C872        H876   1.079       .  S
C877        C878   1.408       .  A
C877        C882   1.412       .  A
C877        H883   1.083       .  S
C878        C879   1.409       .  A
C879        C880   1.414       .  A
C879        H884   1.083       .  S
C880        C881   1.410       .  A
C880        H885   1.080       .  S
C881        C882   1.413       .  A
C882        H886   1.083       .  S
C887        C888   1.404       .  A
C887        C892   1.401       .  A
C887        H893   1.083       .  S
C888       C1825   1.395       .  A
C889        C890   1.384       .  A
C889       C1824   1.395       .  A
C889        H894   1.080       .  S
C890        C891   1.406       .  A
C890        H895   1.084       .  S
C891       C1828   1.403       .  A
C892       C1827   1.403       .  A
C892        H896   1.080       .  S
C897        C898   1.413       .  A
C897        C902   1.419       .  A
C897        H903   1.082       .  S
C898        C899   1.414       .  A
C899        C900   1.411       .  A
C899       H1840   1.083       .  S
C900        C901   1.406       .  A
C900        H905   1.083       .  S
C901        C902   1.412       .  A
C902        H906   1.082       .  S
H904       C1835   1.083       .  S
C907        C908   1.410       .  A
C907        C912   1.397       .  A
C907        H913   1.084       .  S
C908        C909   1.398       .  A
C909        C910   1.395       .  A
C909        H914   1.083       .  S
C910        C911   1.409       .  A
C910        H915   1.083       .  S
C911        C912   1.398       .  A
C912        H916   1.083       .  S
C917        C918   1.407       .  A
C917        C922   1.393       .  A
C917        H923   1.084       .  S
C918        C919   1.396       .  A
C919        C920   1.396       .  A
C919        H924   1.084       .  S
C920        C921   1.411       .  A
C920        H925   1.083       .  S
C921        C922   1.399       .  A
C922        H926   1.083       .  S
C927        C928   1.409       .  A
C927        C932   1.391       .  A
C927        H933   1.083   1_556  S
C928       C1865   1.399       .  A
C929        C930   1.394       .  A
C929       C1864   1.399       .  A
C929        H934   1.083       .  S
C930        C931   1.407       .  A
C930        H935   1.082       .  S
C931       C1868   1.397       .  A
C932       C1867   1.397       .  A
C932        H936   1.081       .  S
O937        C952   1.273       .  A
C938        O948   1.273       .  A
C938       C1867   1.459       .  S
O939       Al941   1.860       .  S
O940        C942   1.260       .  A
O940       Al941   1.915       .  S
Al941       O949   1.918       .  S
Al941       O951   1.860       .  S
Al941       O950   1.754       .  S
C942        O955   1.244       .  A
C942       C1824   1.457       .  S
O943        C953   1.274       .  A
O943       Al945   1.963   1_556  S
O944        C957   1.280   1_545  A
O944       Al954   2.034       .  S
Al945       O958   1.864       .  S
O946        C953   1.254       .  A
O946       Al954   1.836       .  S
O947        C956   1.286       .  A
O948       Al954   1.962       .  S
O949        C956   1.264       .  A
O951        C952   1.258       .  A
C952       C1844   1.471       .  S
C953       C1854   1.459       .  S
C956       C1814   1.500       .  S
C957        O958   1.244   1_566  A
C957       C1834   1.520       .  S
O959        C974   1.286       .  A
O959       Al967   1.962       .  S
C960        O970   1.244       .  A
C960        O961   1.259       .  A
C960       C1784   1.450       .  S
O961       Al963   1.906       .  S
O962        C964   1.258       .  A
O962       Al963   1.864       .  S
Al963       O971   1.860       .  S
Al963       O973   1.910       .  S
Al963       O972   1.755       .  S
C964        O977   1.273       .  A
C964       C1807   1.468       .  S
O965        C975   1.257       .  A
O965       Al967   1.850       .  S
O966        C979   1.241   1_545  A
O966       Al976   1.863       .  S
Al967       O980   2.036       .  S
Al967       O977   1.967       .  S
Al967       O972   1.795       .  S
O968        C975   1.275       .  A
O968       Al976   1.962       .  S
O969        C978   1.270       .  A
O969       Al976   1.934       .  S
O970       Al976   1.853       .  S
O971        C978   1.257       .  A
O972       Al976   1.770       .  S
O973        C974   1.263       .  A
C974       C1774   1.495       .  S
C975       C1847   1.468       .  S
C978       C1857   1.470       .  S
C979        O980   1.279   1_565  A
C979       C1794   1.516       .  S
O981        C996   1.268       .  A
C982        O992   1.272       .  A
C982       C1827   1.469       .  S
O983       Al985   1.862       .  S
O984        C986   1.261       .  A
O984       Al985   1.914       .  S
Al985       O993   1.933       .  S
Al985       O995   1.871       .  S
C986        O999   1.246       .  A
C986       C1734   1.460       .  S
O987        C997   1.276       .  A
O987       Al989   1.961       .  S
O988       C1001   1.275       .  A
O988       Al998   2.020       .  S
Al989      O1002   1.865   1_556  S
Al989       O994   1.762       .  S
O990        C997   1.259       .  A
O990       Al998   1.852       .  S
O991       Al998   1.952   1_554  S
O992       Al998   1.972       .  S
O993       C1000   1.269       .  A
O994       Al998   1.801       .  S
O995        C996   1.258       .  A
C996       C1754   1.471       .  S
C997       C1764   1.466       .  S
C1000      C1724   1.493       .  S
C1001      O1002   1.240   1_556  A
C1001      C1744   1.501       .  S
O1003      C1018   1.285       .  A
O1003     Al1011   1.961       .  S
C1004      O1014   1.246       .  A
C1004      O1005   1.259       .  A
C1004      C1804   1.458       .  S
O1005     Al1007   1.910       .  S
O1006      C1008   1.256       .  A
O1006     Al1007   1.863       .  S
Al1007     O1015   1.872       .  S
Al1007     O1017   1.919       .  S
Al1007     O1016   1.754       .  S
C1008      O1021   1.269       .  A
C1008      C1714   1.460       .  S
O1009      C1019   1.257       .  A
O1009     Al1011   1.849       .  S
O1010      C1023   1.244       .  A
O1010     Al1020   1.866       .  S
Al1011     O1024   2.017       .  S
Al1011     O1021   1.954       .  S
Al1011     O1016   1.801       .  S
O1012      C1019   1.274       .  A
O1012     Al1020   1.957       .  S
O1013      C1022   1.270       .  A
O1013     Al1020   1.934       .  S
O1014     Al1020   1.862       .  S
O1015      C1022   1.259       .  A
O1016     Al1020   1.772       .  S
O1017      C1018   1.265       .  A
C1018      C1697   1.497       .  S
C1019      C1757   1.465       .  S
C1022      C1767   1.473       .  S
C1023      O1024   1.275       .  A
C1023      C1704   1.509       .  S
O1025      C1040   1.289       .  A
O1025     Al1033   1.965       .  S
C1026      O1036   1.242       .  A
C1026      O1027   1.255       .  A
C1026      C1717   1.455       .  S
O1027     Al1029   1.895       .  S
O1028      C1030   1.255       .  A
O1028     Al1029   1.870       .  S
Al1029     O1037   1.882       .  S
Al1029     O1039   1.911       .  S
Al1029     O1038   1.761       .  S
C1030      O1043   1.265       .  A
C1030      C1787   1.461       .  S
O1031      C1041   1.260       .  A
O1031     Al1033   1.857       .  S
O1032      C1045   1.243       .  A
O1032     Al1042   1.867       .  S
Al1033     O1046   2.007       .  S
Al1033     O1043   1.939       .  S
Al1033     O1038   1.807       .  S
O1034      C1041   1.276       .  A
O1034     Al1042   1.960       .  S
O1035      C1044   1.271       .  A
O1035     Al1042   1.933       .  S
O1036     Al1042   1.851       .  S
O1037      C1044   1.260       .  A
O1038     Al1042   1.773       .  S
O1039      C1040   1.265       .  A
C1040      C1654   1.496       .  S
C1041      C1684   1.467       .  S
C1044      C1674   1.485       .  S
C1045      O1046   1.272       .  A
C1045      C1667   1.512   1_655  S
O1047      C1062   1.268       .  A
C1048      O1058   1.258       .  A
C1048      C1737   1.452       .  S
O1049     Al1051   1.857       .  S
O1050      C1052   1.257       .  A
O1050     Al1051   1.928       .  S
Al1051     O1059   1.887       .  S
Al1051     O1061   1.922       .  S
Al1051     O1060   1.773       .  S
C1052      O1065   1.244       .  A
C1052      C1864   1.468       .  S
O1053      C1063   1.277       .  A
O1053     Al1055   1.938   1_556  S
O1054      C1067   1.282   1_554  A
O1054     Al1064   1.986   1_554  S
Al1055     O1068   1.804   1_554  S
O1056      C1063   1.268       .  A
O1056     Al1064   1.906       .  S
O1057     Al1064   1.971   1_554  S
O1058     Al1064   1.913       .  S
O1059      C1066   1.260       .  A
O1061      C1062   1.270       .  A
C1062      C1687   1.472       .  S
C1063      C1677   1.483       .  S
C1066      C1634   1.503       .  S
C1067      O1068   1.240       .  A
C1067      C1644   1.479   1_655  S
O1069      C1084   1.267       .  A
O1069     Al1077   1.905       .  S
C1070      O1080   1.258       .  A
C1070      O1071   1.254       .  A
C1070      C1624   1.453       .  S
O1071     Al1073   1.867       .  S
O1072      C1074   1.258       .  A
O1072     Al1073   1.918       .  S
Al1073     O1081   1.893       .  S
Al1073     O1083   1.914       .  S
Al1073     O1082   1.775       .  S
C1074      O1087   1.248       .  A
C1074      C1584   1.471       .  S
O1075      C1085   1.275       .  A
O1075     Al1077   1.936       .  S
O1076      C1089   1.284       .  A
O1076     Al1086   1.983       .  S
Al1077     O1090   1.815       .  S
Al1077     O1087   1.879       .  S
Al1077     O1082   1.782       .  S
O1078      C1085   1.265       .  A
O1078     Al1086   1.901       .  S
O1079      C1088   1.279       .  A
O1079     Al1086   1.982       .  S
O1080     Al1086   1.914       .  S
O1081      C1088   1.261       .  A
O1082     Al1086   1.786       .  S
O1083      C1084   1.268       .  A
C1084      C1604   1.472       .  S
C1085      C1614   1.480       .  S
C1088      C1797   1.506       .  S
C1089      O1090   1.243       .  A
C1089      C1594   1.481       .  S
O1091      C1106   1.284       .  A
O1091     Al1099   1.951       .  S
C1092      O1102   1.245       .  A
C1092      O1093   1.258       .  A
C1092      C1557   1.459       .  S
O1093     Al1095   1.901       .  S
O1094      C1096   1.256       .  A
O1094     Al1095   1.864       .  S
Al1095     O1103   1.868       .  S
Al1095     O1105   1.914       .  S
Al1095     O1104   1.757       .  S
C1096      O1109   1.269       .  A
C1096      C1574   1.463       .  S
O1097      C1107   1.257       .  A
O1097     Al1099   1.847       .  S
O1098      C1111   1.244       .  A
O1098     Al1108   1.868       .  S
Al1099     O1112   2.011       .  S
Al1099     O1109   1.955       .  S
Al1099     O1104   1.803       .  S
O1100      C1107   1.276       .  A
O1100     Al1108   1.963       .  S
O1101      C1110   1.273       .  A
O1101     Al1108   1.945       .  S
O1102     Al1108   1.864       .  S
O1103      C1110   1.258       .  A
O1104     Al1108   1.769       .  S
O1105      C1106   1.265       .  A
C1106      C1747   1.489       .  S
C1107      C1607   1.462       .  S
C1111      O1112   1.274       .  A
C1111      C1564   1.510       .  S
O1113      C1128   1.287       .  A
O1113     Al1121   1.966       .  S
C1114      O1124   1.246       .  A
C1114      O1115   1.258       .  A
C1114      C1577   1.454       .  S
O1115     Al1117   1.902       .  S
O1116      C1118   1.258       .  A
O1116     Al1117   1.867       .  S
Al1117     O1125   1.868       .  S
Al1117     O1127   1.902       .  S
Al1117     O1126   1.754       .  S
C1118      O1131   1.272       .  A
C1118      C1544   1.466       .  S
O1119      C1129   1.259       .  A
O1119     Al1121   1.855       .  S
O1120      C1133   1.241       .  A
O1120     Al1130   1.863       .  S
Al1121     O1134   2.035       .  S
Al1121     O1131   1.962       .  S
Al1121     O1126   1.800       .  S
O1122      C1129   1.274       .  A
O1122     Al1130   1.954       .  S
O1123      C1132   1.269       .  A
O1123     Al1130   1.931       .  S
O1124     Al1130   1.863       .  S
O1125      C1132   1.258       .  A
O1126     Al1130   1.768       .  S
O1127      C1128   1.262       .  A
C1128      C1647   1.493       .  S
C1129      C1534   1.466       .  S
C1133      O1134   1.278       .  A
C1133      C1514   1.515       .  S
O1135      C1150   1.270       .  A
O1135     Al1143   1.938       .  S
C1136      O1146   1.273       .  A
C1136      O1137   1.254       .  A
C1136      C1587   1.463       .  S
O1137     Al1139   1.861       .  S
O1138      C1140   1.261       .  A
O1138     Al1139   1.916       .  S
Al1139     O1147   1.923       .  S
Al1139     O1149   1.866       .  S
Al1139     O1148   1.748       .  S
C1140      O1153   1.245       .  A
C1140      C1494   1.454       .  S
O1141      C1151   1.274       .  A
O1141     Al1143   1.960       .  S
O1142      C1155   1.279       .  A
O1142     Al1152   2.029       .  S
Al1143     O1156   1.866       .  S
Al1143     O1153   1.857       .  S
Al1143     O1148   1.768       .  S
O1144      C1151   1.255       .  A
O1144     Al1152   1.848       .  S
O1145      C1154   1.284       .  A
O1145     Al1152   1.955       .  S
O1146     Al1152   1.967       .  S
O1147      C1154   1.266       .  A
O1148     Al1152   1.799       .  S
O1149      C1150   1.258       .  A
C1150      C1537   1.469       .  S
C1151      C1527   1.461       .  S
C1154      C1707   1.497       .  S
C1155      O1156   1.243       .  A
C1155      C1504   1.508       .  S
O1157      C1172   1.268       .  A
O1157     Al1165   1.932       .  S
C1158      O1168   1.272       .  A
C1158      O1159   1.257       .  A
C1158      C1497   1.466       .  S
O1159     Al1161   1.861       .  S
O1160      C1162   1.262       .  A
O1160     Al1161   1.918       .  S
Al1161     O1169   1.920       .  S
Al1161     O1171   1.870       .  S
Al1161     O1170   1.753       .  S
C1162      O1175   1.248       .  A
C1162      C1627   1.462       .  S
O1163      C1173   1.274       .  A
O1163     Al1165   1.957       .  S
O1164      C1177   1.277       .  A
O1164     Al1174   2.025       .  S
Al1165     O1178   1.864       .  S
Al1165     O1175   1.865       .  S
Al1165     O1170   1.768       .  S
O1166      C1173   1.260       .  A
O1166     Al1174   1.864       .  S
O1167      C1176   1.285       .  A
O1167     Al1174   1.962       .  S
O1168     Al1174   1.965       .  S
O1169      C1176   1.265       .  A
O1170     Al1174   1.798       .  S
O1171      C1172   1.258       .  A
C1172      C1474   1.472       .  S
C1173      C1484   1.471       .  S
C1176      C1664   1.497       .  S
C1177      O1178   1.241       .  A
C1177      C1464   1.506       .  S
O1179      C1194   1.287       .  A
O1179     Al1187   1.968       .  S
C1180      O1190   1.245       .  A
C1180      O1181   1.260       .  A
C1180      C1547   1.456       .  S
O1181     Al1183   1.914       .  S
O1182      C1184   1.256       .  A
O1182     Al1183   1.866       .  S
Al1183     O1191   1.871       .  S
Al1183     O1193   1.926       .  S
Al1183     O1192   1.752       .  S
C1184      O1197   1.271       .  A
C1184      C1554   1.466       .  S
O1185      C1195   1.257       .  A
O1185     Al1187   1.849       .  S
O1186      C1199   1.243       .  A
O1186     Al1196   1.864       .  S
Al1187     O1200   2.031       .  S
Al1187     O1197   1.962       .  S
Al1187     O1192   1.799       .  S
O1188      C1195   1.275       .  A
O1188     Al1196   1.963       .  S
O1189      C1198   1.271       .  A
O1189     Al1196   1.942       .  S
O1190     Al1196   1.860       .  S
O1191      C1198   1.259       .  A
O1192     Al1196   1.773       .  S
O1193      C1194   1.266       .  A
C1194      C1837   1.505       .  S
C1195      C1477   1.467       .  S
C1199      O1200   1.279       .  A
C1199      C1454   1.515       .  S
O1201      C1216   1.267       .  A
O1201     Al1209   1.904       .  S
C1202      O1212   1.260       .  A
C1202      O1203   1.254       .  A
C1202      C1444   1.455       .  S
O1203     Al1205   1.859       .  S
O1204      C1206   1.256       .  A
O1204     Al1205   1.914       .  S
Al1205     O1213   1.896       .  S
Al1205     O1215   1.916       .  S
Al1205     O1214   1.775       .  S
C1206      O1219   1.245       .  A
C1206      C1414   1.467   1_545  S
O1207      C1217   1.276       .  A
O1207     Al1209   1.943       .  S
O1208      C1221   1.285       .  A
O1208     Al1218   1.990       .  S
Al1209     O1222   1.809       .  S
Al1209     O1219   1.873       .  S
Al1209     O1214   1.783       .  S
O1210      C1217   1.266       .  A
O1210     Al1218   1.903       .  S
O1211      C1220   1.278       .  A
O1211     Al1218   1.981       .  S
O1212     Al1218   1.922       .  S
O1213      C1220   1.262       .  A
O1214     Al1218   1.782       .  S
O1215      C1216   1.269       .  A
C1216      C1424   1.472       .  S
C1217      C1434   1.483       .  S
C1220      C1517   1.509       .  S
C1221      O1222   1.243       .  A
C1221      C1777   1.480       .  S
O1223      C1238   1.284       .  A
O1223     Al1231   1.956   1_565  S
C1224      O1234   1.244       .  A
C1224      O1225   1.257       .  A
C1224      C1394   1.460       .  S
O1225     Al1227   1.904       .  S
O1226      C1228   1.255       .  A
O1226     Al1227   1.864   1_565  S
Al1227     O1235   1.876       .  S
Al1227     O1237   1.922   1_545  S
Al1227     O1236   1.760       .  S
C1228      O1241   1.268       .  A
C1228      C1404   1.462       .  S
O1229      C1239   1.259       .  A
O1229     Al1231   1.852       .  S
O1230      C1243   1.244       .  A
O1230     Al1240   1.867       .  S
Al1231     O1244   2.002       .  S
Al1231     O1241   1.952   1_545  S
Al1231     O1236   1.806       .  S
O1232      C1239   1.276       .  A
O1232     Al1240   1.962       .  S
O1233      C1242   1.273       .  A
O1233     Al1240   1.940       .  S
O1234     Al1240   1.861       .  S
O1235      C1242   1.259       .  A
O1236     Al1240   1.774       .  S
O1237      C1238   1.266       .  A
C1238      C1467   1.494       .  S
C1242      C1437   1.485       .  S
C1243      O1244   1.272       .  A
C1243      C1727   1.510       .  S
O1245      C1260   1.270       .  A
O1245     Al1253   1.940       .  S
C1246      O1256   1.271       .  A
C1246      O1247   1.254   1_455  A
C1246      C1417   1.461       .  S
O1247     Al1249   1.858       .  S
O1248      C1250   1.261       .  A
O1248     Al1249   1.920       .  S
Al1249     O1257   1.934   1_655  S
Al1249     O1259   1.872       .  S
Al1249     O1258   1.751       .  S
C1250      O1263   1.245       .  A
C1250      C1364   1.461       .  S
O1251      C1261   1.276       .  A
O1251     Al1253   1.965       .  S
O1252      C1265   1.277       .  A
O1252     Al1262   2.025       .  S
Al1253     O1266   1.863       .  S
Al1253     O1263   1.856       .  S
Al1253     O1258   1.768       .  S
O1254      C1261   1.256       .  A
O1254     Al1262   1.848       .  S
O1255      C1264   1.285   1_655  A
O1255     Al1262   1.958       .  S
O1256     Al1262   1.961   1_455  S
O1257      C1264   1.268       .  A
O1258     Al1262   1.802       .  S
O1259      C1260   1.259       .  A
C1260      C1374   1.476       .  S
C1261      C1384   1.465       .  S
C1264      C1457   1.502       .  S
C1265      O1266   1.242       .  A
C1265      C1694   1.511       .  S
O1267      C1282   1.287       .  A
O1267     Al1275   1.966       .  S
C1268      O1278   1.245       .  A
C1268      O1269   1.258       .  A
C1268      C1407   1.454       .  S
O1269     Al1271   1.903       .  S
O1270      C1272   1.258       .  A
O1270     Al1271   1.868       .  S
Al1271     O1279   1.871       .  S
Al1271     O1281   1.909       .  S
Al1271     O1280   1.752       .  S
C1272      O1285   1.269       .  A
C1272      C1354   1.462       .  S
O1273      C1283   1.259       .  A
O1273     Al1275   1.857       .  S
O1274      C1287   1.239       .  A
O1274     Al1284   1.862       .  S
Al1275     O1288   2.024       .  S
Al1275     O1285   1.951       .  S
Al1275     O1280   1.802       .  S
O1276      C1283   1.276       .  A
O1276     Al1284   1.961       .  S
O1277      C1286   1.269       .  A
O1277     Al1284   1.931       .  S
O1278     Al1284   1.860       .  S
O1279      C1286   1.258       .  A
O1280     Al1284   1.767       .  S
O1281      C1282   1.263       .  A
C1282      C1597   1.494       .  S
C1286      C1387   1.476       .  S
C1287      O1288   1.275       .  A
C1287      C1637   1.506       .  S
O1289      C1304   1.268       .  A
O1289     Al1297   1.900       .  S
C1290      O1300   1.258       .  A
C1290      O1291   1.251       .  A
C1290      C1367   1.453       .  S
O1291     Al1293   1.844   1_565  S
O1292      C1294   1.258       .  A
O1292     Al1293   1.937       .  S
Al1293     O1301   1.894   1_545  S
Al1293     O1303   1.919       .  S
Al1293     O1302   1.774       .  S
C1294      O1307   1.247       .  A
C1294      C1447   1.477       .  S
O1295      C1305   1.275       .  A
O1295     Al1297   1.924       .  S
O1296      C1309   1.281       .  A
O1296     Al1306   1.984       .  S
Al1297     O1310   1.806       .  S
Al1297     O1307   1.875       .  S
Al1297     O1302   1.781       .  S
O1298      C1305   1.267       .  A
O1298     Al1306   1.901       .  S
O1299      C1308   1.279       .  A
O1299     Al1306   1.973   1_565  S
O1300     Al1306   1.917   1_565  S
O1301      C1308   1.262       .  A
O1302     Al1306   1.790       .  S
O1303      C1304   1.269       .  A
C1304      C1334   1.473       .  S
C1305      C1344   1.473       .  S
C1308      C1567   1.501       .  S
C1309      O1310   1.240       .  A
C1309      C1657   1.482       .  S
O1311      C1326   1.289   1_655  A
O1311     Al1319   1.958       .  S
C1312      O1322   1.243       .  A
C1312      O1313   1.255       .  A
C1312      C1357   1.453   1_545  S
O1313     Al1315   1.888       .  S
O1314      C1316   1.252   1_655  A
O1314     Al1315   1.869       .  S
Al1315     O1323   1.865       .  S
Al1315     O1325   1.915   1_655  S
Al1315     O1324   1.754       .  S
C1316      O1329   1.267       .  A
C1316      C1397   1.467       .  S
O1317      C1327   1.261       .  A
O1317     Al1319   1.855       .  S
O1318      C1331   1.242       .  A
O1318     Al1328   1.867       .  S
Al1319     O1332   2.019       .  S
Al1319     O1329   1.963   1_655  S
Al1319     O1324   1.808       .  S
O1320      C1327   1.278       .  A
O1320     Al1328   1.962       .  S
O1321      C1330   1.269       .  A
O1321     Al1328   1.929       .  S
O1322     Al1328   1.853       .  S
O1323      C1330   1.257       .  A
O1324     Al1328   1.772       .  S
O1325      C1326   1.267       .  A
C1326      C1507   1.491       .  S
C1330      C1347   1.477       .  S
C1331      O1332   1.273       .  A
C1331      C1817   1.516       .  S
C1333      C1334   1.402       .  A
C1333      C1338   1.397       .  A
C1333      H1339   1.083       .  S
C1334      C1335   1.408       .  A
C1335      C1336   1.395       .  A
C1335      H1340   1.083       .  S
C1336      C1337   1.398       .  A
C1336      H1341   1.084   1_556  S
C1337      C1338   1.403       .  A
C1338      H1342   1.083       .  S
C1343      C1344   1.409       .  A
C1343      C1348   1.394       .  A
C1343      H1349   1.083       .  S
C1344      C1345   1.400       .  A
C1345      C1346   1.397       .  A
C1345      H1350   1.083       .  S
C1346      C1347   1.411       .  A
C1346      H1351   1.083       .  S
C1347      C1348   1.400       .  A
C1348      H1352   1.083       .  S
C1353      C1354   1.403       .  A
C1353      C1358   1.386       .  A
C1353      H1359   1.084       .  S
C1354      C1355   1.404       .  A
C1355      C1356   1.397       .  A
C1355      H1360   1.079       .  S
C1356      C1357   1.401       .  A
C1356      H1361   1.083       .  S
C1357      C1358   1.399       .  A
C1358      H1362   1.084   1_565  S
C1363      C1364   1.399       .  A
C1363      C1368   1.392       .  A
C1363      H1369   1.083       .  S
C1364      C1365   1.403       .  A
C1365      C1366   1.398       .  A
C1365      H1370   1.083       .  S
C1366      C1367   1.403       .  A
C1366      H1371   1.081       .  S
C1367      C1368   1.404       .  A
C1368      H1372   1.084       .  S
C1373      C1374   1.409       .  A
C1373      C1378   1.398       .  A
C1373      H1379   1.083       .  S
C1374      C1375   1.401       .  A
C1375      C1376   1.398       .  A
C1375      H1380   1.083       .  S
C1376      C1377   1.408       .  A
C1376      H1381   1.083       .  S
C1377      C1378   1.399       .  A
C1378      H1382   1.083       .  S
C1383      C1384   1.398       .  A
C1383      C1388   1.398       .  A
C1383      H1389   1.083       .  S
C1384      C1385   1.407       .  A
C1385      C1386   1.396       .  A
C1385      H1390   1.084       .  S
C1386      C1387   1.401       .  A
C1386      H1391   1.083       .  S
C1387      C1388   1.410       .  A
C1388      H1392   1.083       .  S
C1393      C1394   1.402       .  A
C1393      C1398   1.399       .  A
C1393      H1399   1.083       .  S
C1394      C1395   1.399       .  A
C1395      C1396   1.389       .  A
C1395      H1400   1.083       .  S
C1396      C1397   1.405       .  A
C1396      H1401   1.084       .  S
C1397      C1398   1.404       .  A
C1398      H1402   1.079       .  S
C1403      C1404   1.403       .  A
C1403      C1408   1.397       .  A
C1403      H1409   1.079       .  S
C1404      C1405   1.405       .  A
C1405      C1406   1.388       .  A
C1405      H1410   1.084       .  S
C1406      C1407   1.398   1_455  A
C1406      H1411   1.084   1_455  S
C1407      C1408   1.401   1_655  A
C1408      H1412   1.083       .  S
C1413      C1414   1.407       .  A
C1413      C1418   1.394       .  A
C1413      H1419   1.083       .  S
C1414      C1415   1.398       .  A
C1415      C1416   1.390       .  A
C1415      H1420   1.077   1_565  S
C1416      C1417   1.406       .  A
C1416      H1421   1.084       .  S
C1417      C1418   1.399       .  A
C1418      H1422   1.080       .  S
C1423      C1424   1.407       .  A
C1423      C1428   1.396       .  A
C1423      H1429   1.083       .  S
C1424      C1425   1.401       .  A
C1425      C1426   1.398       .  A
C1425      H1430   1.083       .  S
C1426      C1427   1.406       .  A
C1426      H1431   1.083       .  S
C1427      C1428   1.398       .  A
C1428      H1432   1.084   1_556  S
C1433      C1434   1.402       .  A
C1433      C1438   1.404       .  A
C1433      H1439   1.083       .  S
C1434      C1435   1.410       .  A
C1435      C1436   1.395       .  A
C1435      H1440   1.083       .  S
C1436      C1437   1.400       .  A
C1436      H1441   1.083       .  S
C1437      C1438   1.413       .  A
C1438      H1442   1.083       .  S
C1443      C1444   1.405       .  A
C1443      C1448   1.401       .  A
C1443      H1449   1.079       .  S
C1444      C1445   1.397       .  A
C1445      C1446   1.392       .  A
C1445      H1450   1.082       .  S
C1446      C1447   1.409   1_455  A
C1446      H1451   1.083       .  S
C1447      C1448   1.402   1_655  A
C1448      H1452   1.083   1_455  S
C1453      C1454   1.411       .  A
C1453      C1458   1.415       .  A
C1453      H1459   1.082       .  S
C1454      C1455   1.415       .  A
C1455      C1456   1.412       .  A
C1455      H1460   1.083       .  S
C1456      C1457   1.406       .  A
C1456      H1461   1.083       .  S
C1457      C1458   1.410       .  A
C1458      H1462   1.082       .  S
C1463      C1464   1.409       .  A
C1463      C1468   1.412       .  A
C1463      H1469   1.082       .  S
C1464      C1465   1.414       .  A
C1465      C1466   1.410       .  A
C1465      H1470   1.083       .  S
C1466      C1467   1.405       .  A
C1466      H1471   1.083       .  S
C1467      C1468   1.408       .  A
C1468      H1472   1.081       .  S
C1473      C1474   1.399       .  A
C1473      C1478   1.395       .  A
C1473      H1479   1.083       .  S
C1474      C1475   1.409       .  A
C1475      C1476   1.398       .  A
C1475      H1480   1.083       .  S
C1476      C1477   1.398       .  A
C1476      H1481   1.083       .  S
C1477      C1478   1.407       .  A
C1478      H1482   1.084       .  S
C1483      C1484   1.399       .  A
C1483      C1488   1.397       .  A
C1483      H1489   1.083       .  S
C1484      C1485   1.407       .  A
C1485      C1486   1.398       .  A
C1485      H1490   1.083       .  S
C1486      C1487   1.401       .  A
C1486      H1491   1.083       .  S
C1487      C1488   1.409       .  A
C1488      H1492   1.083       .  S
C1493      C1494   1.401       .  A
C1493      C1498   1.400       .  A
C1493      H1499   1.083       .  S
C1494      C1495   1.395       .  A
C1495      C1496   1.385       .  A
C1495      H1500   1.079       .  S
C1496      C1497   1.403       .  A
C1496      H1501   1.084       .  S
C1497      C1498   1.405       .  A
C1498      H1502   1.077       .  S
C1503      C1504   1.413       .  A
C1503      C1508   1.409       .  A
C1503      H1509   1.084       .  S
C1504      C1505   1.409       .  A
C1505      C1506   1.412       .  A
C1505      H1510   1.081       .  S
C1506      C1507   1.407       .  A
C1506      H1511   1.083       .  S
C1507      C1508   1.406       .  A
C1508      H1512   1.083       .  S
C1513      C1514   1.411       .  A
C1513      C1518   1.416       .  A
C1513      H1519   1.082       .  S
C1514      C1515   1.414       .  A
C1515      C1516   1.412       .  A
C1515      H1520   1.083       .  S
C1516      C1517   1.408       .  A
C1516      H1521   1.083       .  S
C1517      C1518   1.412       .  A
C1518      H1522   1.082       .  S
C1523      C1524   1.410       .  A
C1523      C1528   1.397       .  A
C1523      H1529   1.083       .  S
C1524      C1525   1.402       .  A
C1525      C1526   1.396       .  A
C1525      H1530   1.083       .  S
C1526      C1527   1.405       .  A
C1526      H1531   1.084       .  S
C1527      C1528   1.397       .  A
C1528      H1532   1.084       .  S
C1533      C1534   1.398       .  A
C1533      C1538   1.395       .  A
C1533      H1539   1.083       .  S
C1534      C1535   1.407       .  A
C1535      C1536   1.395       .  A
C1535      H1540   1.083       .  S
C1536      C1537   1.400       .  A
C1536      H1541   1.083       .  S
C1537      C1538   1.408       .  A
C1538      H1542   1.083       .  S
C1543      C1544   1.404       .  A
C1543      C1548   1.387       .  A
C1543      H1549   1.084       .  S
C1544      C1545   1.405       .  A
C1545      C1546   1.400       .  A
C1545      H1550   1.079       .  S
C1546      C1547   1.402       .  A
C1546      H1551   1.083       .  S
C1547      C1548   1.397       .  A
C1548      H1552   1.082       .  S
C1553      C1554   1.405       .  A
C1553      C1558   1.387       .  A
C1553      H1559   1.083       .  S
C1554      C1555   1.404       .  A
C1555      C1556   1.400       .  A
C1555      H1560   1.081       .  S
C1556      C1557   1.403       .  A
C1556      H1561   1.083       .  S
C1557      C1558   1.398       .  A
C1558      H1562   1.083       .  S
C1563      C1564   1.413       .  A
C1563      C1568   1.410       .  A
C1563      H1569   1.083       .  S
C1564      C1565   1.409       .  A
C1565      C1566   1.412       .  A
C1565      H1570   1.082       .  S
C1566      C1567   1.409       .  A
C1566      H1571   1.080       .  S
C1567      C1568   1.406       .  A
C1568      H1572   1.083       .  S
C1573      C1574   1.405       .  A
C1573      C1578   1.388       .  A
C1573      H1579   1.083       .  S
C1574      C1575   1.403       .  A
C1575      C1576   1.397       .  A
C1575      H1580   1.080       .  S
C1576      C1577   1.401       .  A
C1576      H1581   1.083       .  S
C1577      C1578   1.398       .  A
C1578      H1582   1.084       .  S
C1583      C1584   1.398       .  A
C1583      C1588   1.391       .  A
C1583      H1589   1.080       .  S
C1584      C1585   1.409       .  A
C1585      C1586   1.395       .  A
C1585      H1590   1.083       .  S
C1586      C1587   1.399       .  A
C1586      H1591   1.081       .  S
C1587      C1588   1.406       .  A
C1588      H1592   1.081       .  S
C1593      C1594   1.413       .  A
C1593      C1598   1.414       .  A
C1593      H1599   1.083       .  S
C1594      C1595   1.411       .  A
C1595      C1596   1.408       .  A
C1595      H1600   1.083       .  S
C1596      C1597   1.404       .  A
C1596      H1601   1.081       .  S
C1597      C1598   1.409       .  A
C1598      H1602   1.083       .  S
C1603      C1604   1.401       .  A
C1603      C1608   1.399       .  A
C1603      H1609   1.083       .  S
C1604      C1605   1.407       .  A
C1605      C1606   1.395       .  A
C1605      H1610   1.083       .  S
C1606      C1607   1.397       .  A
C1606      H1611   1.084       .  S
C1607      C1608   1.407       .  A
C1608      H1612   1.084       .  S
C1613      C1614   1.400       .  A
C1613      C1618   1.400       .  A
C1613      H1619   1.083       .  S
C1614      C1615   1.411       .  A
C1615      C1616   1.396       .  A
C1615      H1620   1.083       .  S
C1616      C1617   1.400       .  A
C1616      H1621   1.083       .  S
C1617      C1618   1.412       .  A
C1618      H1622   1.083       .  S
C1623      C1624   1.401       .  A
C1623      C1628   1.397       .  A
C1623      H1629   1.082       .  S
C1624      C1625   1.402       .  A
C1625      C1626   1.393       .  A
C1625      H1630   1.081       .  S
C1626      C1627   1.399       .  A
C1626      H1631   1.084       .  S
C1627      C1628   1.403       .  A
C1628      H1632   1.083       .  S
C1633      C1634   1.408       .  A
C1633      C1638   1.410       .  A
C1633      H1639   1.083       .  S
C1634      C1635   1.409       .  A
C1635      C1636   1.412       .  A
C1635      H1640   1.082       .  S
C1636      C1637   1.410       .  A
C1636      H1641   1.081       .  S
C1637      C1638   1.412       .  A
C1638      H1642   1.083       .  S
C1643      C1644   1.412   1_554  A
C1643      C1648   1.414   1_554  A
C1644      C1645   1.412       .  A
C1645      C1646   1.408       .  A
C1645      H1650   1.084       .  S
C1646      C1647   1.403       .  A
C1646      H1651   1.082       .  S
C1647      C1648   1.410       .  A
C1648      H1652   1.083   1_556  S
C1653      C1654   1.404       .  A
C1653      C1658   1.409       .  A
C1653      H1659   1.081       .  S
C1654      C1655   1.409       .  A
C1655      C1656   1.414       .  A
C1655      H1660   1.083       .  S
C1656      C1657   1.412       .  A
C1656      H1661   1.083       .  S
C1657      C1658   1.413       .  A
C1658      H1662   1.083       .  S
C1663      C1664   1.407       .  A
C1663      C1668   1.413       .  A
C1663      H1669   1.083       .  S
C1664      C1665   1.406       .  A
C1665      C1666   1.410       .  A
C1665      H1670   1.080       .  S
C1666      C1667   1.409       .  A
C1666      H1671   1.081       .  S
C1667      C1668   1.414       .  A
C1668      H1672   1.083       .  S
C1673      C1674   1.412       .  A
C1673      C1678   1.404       .  A
C1673      H1679   1.083       .  S
C1674      C1675   1.401       .  A
C1675      C1676   1.396       .  A
C1675      H1680   1.083       .  S
C1676      C1677   1.410       .  A
C1676      H1681   1.083       .  S
C1677      C1678   1.402       .  A
C1678      H1682   1.083       .  S
C1683      C1684   1.400       .  A
C1683      C1688   1.399       .  A
C1683      H1689   1.084       .  S
C1684      C1685   1.406       .  A
C1685      C1686   1.397       .  A
C1685      H1690   1.083       .  S
C1686      C1687   1.400       .  A
C1686      H1691   1.083       .  S
C1687      C1688   1.407       .  A
C1688      H1692   1.084       .  S
C1693      C1694   1.414       .  A
C1693      C1698   1.410       .  A
C1693      H1699   1.083       .  S
C1694      C1695   1.410       .  A
C1695      C1696   1.414       .  A
C1695      H1700   1.082       .  S
C1696      C1697   1.409       .  A
C1696      H1701   1.082       .  S
C1697      C1698   1.406       .  A
C1698      H1702   1.083       .  S
C1703      C1704   1.411       .  A
C1703      C1708   1.414       .  A
C1703      H1709   1.082       .  S
C1704      C1705   1.412       .  A
C1705      C1706   1.409       .  A
C1705      H1710   1.083       .  S
C1706      C1707   1.406       .  A
C1706      H1711   1.083       .  S
C1707      C1708   1.409       .  A
C1708      H1712   1.083       .  S
C1713      C1714   1.404       .  A
C1713      C1718   1.388       .  A
C1713      H1719   1.084       .  S
C1714      C1715   1.403       .  A
C1715      C1716   1.396       .  A
C1715      H1720   1.080       .  S
C1716      C1717   1.401       .  A
C1716      H1721   1.083       .  S
C1717      C1718   1.399       .  A
C1718      H1722   1.084       .  S
C1723      C1724   1.404       .  A
C1723      C1728   1.411       .  A
C1723      H1729   1.083       .  S
C1724      C1725   1.407       .  A
C1725      C1726   1.409       .  A
C1726      C1727   1.408       .  A
C1726      H1731   1.082       .  S
C1727      C1728   1.415       .  A
C1728      H1732   1.083       .  S
C1733      C1738   1.397       .  A
C1733      H1739   1.083       .  S
C1734      C1735   1.399       .  A
C1735      C1736   1.392       .  A
C1735      H1740   1.084       .  S
C1736      H1741   1.084       .  S
C1737      C1738   1.403       .  A
C1738      H1742   1.081       .  S
C1743      C1744   1.408       .  A
C1743      C1748   1.409       .  A
C1743      H1749   1.082       .  S
C1744      C1745   1.413   1_556  A
C1745      C1746   1.408   1_554  A
C1746      C1747   1.405       .  A
C1746      H1751   1.083   1_556  S
C1747      C1748   1.407       .  A
C1748      H1752   1.082       .  S
C1753      C1754   1.399       .  A
C1753      C1758   1.393       .  A
C1753      H1759   1.083       .  S
C1754      C1755   1.410       .  A
C1755      C1756   1.398       .  A
C1755      H1760   1.083       .  S
C1756      C1757   1.399       .  A
C1756      H1761   1.083       .  S
C1757      C1758   1.406       .  A
C1758      H1762   1.084       .  S
C1763      C1764   1.406       .  A
C1763      C1768   1.395       .  A
C1763      H1769   1.084       .  S
C1764      C1765   1.399       .  A
C1765      C1766   1.398       .  A
C1765      H1770   1.083       .  S
C1766      C1767   1.409       .  A
C1766      H1771   1.083       .  S
C1767      C1768   1.400       .  A
C1768      H1772   1.083       .  S
C1773      C1774   1.403       .  A
C1773      C1778   1.408       .  A
C1773      H1779   1.082       .  S
C1774      C1775   1.409       .  A
C1775      C1776   1.415       .  A
C1775      H1780   1.083       .  S
C1776      C1777   1.414       .  A
C1776      H1781   1.083       .  S
C1777      C1778   1.412       .  A
C1778      H1782   1.084       .  S
C1783      C1784   1.400       .  A
C1783      C1788   1.396       .  A
C1783      H1789   1.083       .  S
C1784      C1785   1.397       .  A
C1785      C1786   1.386       .  A
C1785      H1790   1.082       .  S
C1786      C1787   1.404       .  A
C1786      H1791   1.084       .  S
C1787      C1788   1.403       .  A
C1788      H1792   1.080       .  S
C1793      C1794   1.415       .  A
C1793      C1798   1.411       .  A
C1793      H1799   1.083       .  S
C1794      C1795   1.410       .  A
C1795      C1796   1.415       .  A
C1795      H1800   1.082       .  S
C1796      C1797   1.411       .  A
C1796      H1801   1.082       .  S
C1797      C1798   1.407       .  A
C1798      H1802   1.083       .  S
C1803      C1804   1.402       .  A
C1803      C1808   1.399       .  A
C1803      H1809   1.083       .  S
C1804      C1805   1.397       .  A
C1805      C1806   1.388       .  A
C1805      H1810   1.084       .  S
C1806      C1807   1.405       .  A
C1806      H1811   1.083       .  S
C1807      C1808   1.404       .  A
C1808      H1812   1.079       .  S
C1813      C1814   1.408       .  A
C1813      C1818   1.412       .  A
C1813      H1819   1.083       .  S
C1814      C1815   1.409       .  A
C1815      C1816   1.414       .  A
C1815      H1820   1.083       .  S
C1816      C1817   1.410       .  A
C1816      H1821   1.080       .  S
C1817      C1818   1.413       .  A
C1818      H1822   1.083       .  S
C1823      C1824   1.404       .  A
C1823      C1828   1.401       .  A
C1823      H1829   1.083       .  S
C1825      C1826   1.384       .  A
C1825      H1830   1.080       .  S
C1826      C1827   1.406       .  A
C1826      H1831   1.084       .  S
C1828      H1832   1.080       .  S
C1833      C1834   1.413       .  A
C1833      C1838   1.419       .  A
C1833      H1839   1.082       .  S
C1834      C1835   1.414   1_556  A
C1835      C1836   1.411   1_554  A
C1836      C1837   1.406       .  A
C1836      H1841   1.083   1_556  S
C1837      C1838   1.412       .  A
C1838      H1842   1.082       .  S
C1843      C1844   1.410       .  A
C1843      C1848   1.397       .  A
C1843      H1849   1.084       .  S
C1844      C1845   1.398       .  A
C1845      C1846   1.395       .  A
C1845      H1850   1.083       .  S
C1846      C1847   1.409       .  A
C1846      H1851   1.083       .  S
C1847      C1848   1.398       .  A
C1848      H1852   1.083       .  S
C1853      C1854   1.407       .  A
C1853      C1858   1.393       .  A
C1853      H1859   1.084       .  S
C1854      C1855   1.396       .  A
C1855      C1856   1.396       .  A
C1855      H1860   1.084       .  S
C1856      C1857   1.411       .  A
C1856      H1861   1.083       .  S
C1857      C1858   1.399       .  A
C1858      H1862   1.083       .  S
C1863      C1864   1.409       .  A
C1863      C1868   1.391       .  A
C1863      H1869   1.083       .  S
C1865      C1866   1.394       .  A
C1865      H1870   1.083       .  S
C1866      C1867   1.407       .  A
C1866      H1871   1.082       .  S
C1868      H1872   1.081       .  S
