geometry optimzed in LAMMPS
_audit_creation_date              2020-12-01 
_audit_creation_method            'lammps2cif' 
_symmetry_space_group_name_H-M    'P1' 
_symmetry_Int_Tables_number       1 
_symmetry_cell_setting            triclinic 
loop_ 
_symmetry_equiv_pos_as_xyz 
  x,y,z 
_cell_length_a                    29.11164113 
_cell_length_b                    28.87665824355511 
_cell_length_c                    45.39407375550539 
_cell_angle_alpha                 90.1505906973028 
_cell_angle_beta                  90.20520145469303 
_cell_angle_gamma                 89.72992093540556 
loop_ 
_atom_site_label 
_atom_site_type_symbol 
_atom_site_fract_x 
_atom_site_fract_y 
_atom_site_fract_z 
_atom_site_charge 
Fe1        Fe  0.11916993  0.01520683  0.65743995     1.65800
Fe2        Fe  0.03558977  0.09803131  0.66074121     1.73200
Fe3        Fe  0.06241665  0.03326813  0.72136712     1.54400
O4          O  0.07261759  0.96341025  0.71389165    -0.80200
O5          O  0.03709693  0.14166259  0.69629156    -0.78500
O6          O  0.08851684  0.95207590  0.66636647    -0.82700
O7          O  0.16227159  0.00767351  0.69352021    -0.77600
O8          O  0.99408132  0.02300650  0.71323677    -0.79400
O9          O  0.09546503  0.13063660  0.64622171    -0.82100
C10         C  0.16415592  0.02202297  0.71995322     0.98700
C11         C  0.07694913  0.93718050  0.69158833     1.06100
O12         O  0.07217079  0.04914494  0.67975088    -1.11100
O13         O  0.02669127  0.06405854  0.62130082    -0.73500
O14         O  0.08505852  0.01532760  0.61736467    -0.77000
O15         O  0.13026114  0.04149924  0.73232773    -0.77700
C16         C  0.04962407  0.03470470  0.60679749     0.97600
O17         O  0.15164066  0.07720891  0.64801380    -0.75700
O18         O  0.97425772  0.06787244  0.67490721    -0.80800
C19         C  0.04133574  0.13834873  0.72388766     1.00200
C20         C  0.96467587  0.03843034  0.69494745     1.06100
O21         O  0.05035822  0.10012508  0.73623502    -0.76500
C22         C  0.13783630  0.11888454  0.64442594     1.04400
Fe23       Fe  0.39551898  0.47670558  0.65845229     1.65800
Fe24       Fe  0.47881567  0.39324316  0.65757194     1.73200
Fe25       Fe  0.45913884  0.45730637  0.71972798     1.54400
O26         O  0.44906795  0.52724064  0.71336922    -0.80200
O27         O  0.47902851  0.34803608  0.69248444    -0.78500
O28         O  0.42724082  0.53949047  0.66685571    -0.82700
O29         O  0.35604896  0.48318387  0.69597317    -0.77600
O30         O  0.52663792  0.46664056  0.70925753    -0.79400
O31         O  0.41733163  0.36228973  0.64382848    -0.82100
C32         C  0.35685622  0.46787450  0.72213573     0.98700
C33         C  0.44216384  0.55377033  0.69157236     1.06100
O34         O  0.44471072  0.44209712  0.67850337    -1.11100
O35         O  0.48529455  0.42989228  0.61887493    -0.73500
O36         O  0.42533523  0.47695607  0.61731472    -0.77000
O37         O  0.39242431  0.44957858  0.73337661    -0.77700
C38         C  0.46039418  0.45901641  0.60544428     0.97600
O39         O  0.36167403  0.41549175  0.64947143    -0.75700
O40         O  0.54220057  0.42058730  0.67069101    -0.80800
C41         C  0.47899286  0.35183549  0.72025201     1.00200
C42         C  0.55432887  0.44950670  0.69058301     1.06100
O43         O  0.47239141  0.39024010  0.73306952    -0.76500
C44         C  0.37491770  0.37416747  0.64411416     1.04400
Fe45       Fe  0.52550992  0.61163923  0.34329315     1.65800
Fe46       Fe  0.60732311  0.52664223  0.34508874     1.73200
Fe47       Fe  0.54571171  0.54748702  0.28223650     1.54400
O48         O  0.47601532  0.55802551  0.28788676    -0.80200
O49         O  0.65311869  0.52733138  0.31102115    -0.78500
O50         O  0.46273307  0.58092330  0.33409859    -0.82700
O51         O  0.52035725  0.65162294  0.30566339    -0.77600
O52         O  0.53580282  0.47925937  0.29258692    -0.79400
O53         O  0.63804889  0.58795168  0.35975127    -0.82100
C54         C  0.53569615  0.65082391  0.27953165     0.98700
C55         C  0.44891651  0.56654638  0.30910542     1.06100
O56         O  0.55970014  0.56165400  0.32363136    -1.11100
O57         O  0.56937371  0.51965008  0.38281790    -0.73500
O58         O  0.52411168  0.58129275  0.38454518    -0.77000
O59         O  0.55393982  0.61483626  0.26854695    -0.77700
C60         C  0.54077947  0.54509148  0.39615106     0.97600
O61         O  0.58650725  0.64482196  0.35270919    -0.75700
O62         O  0.58066011  0.46286965  0.33143866    -0.80800
C63         C  0.65065803  0.52836053  0.28325116     1.00200
C64         C  0.55197387  0.45111584  0.31147098     1.06100
O65         O  0.61289244  0.53472041  0.26990680    -0.76500
C66         C  0.62700523  0.63083845  0.35882089     1.04400
Fe67       Fe  0.97676413  0.89475908  0.34321877     1.65800
Fe68       Fe  0.89161483  0.97643768  0.34484370     1.73200
Fe69       Fe  0.95422449  0.96116081  0.28243930     1.54400
O70         O  0.02245219  0.96925118  0.29210535    -0.80200
O71         O  0.84990974  0.98201957  0.30803505    -0.78500
O72         O  0.03944781  0.92201967  0.32962397    -0.82700
O73         O  0.97449858  0.85102383  0.30748980    -0.77600
O74         O  0.94550888  0.03081406  0.29068954    -0.79400
O75         O  0.85981384  0.91438011  0.35422177    -0.82100
C76         C  0.97176410  0.85548672  0.27980674     0.98700
C77         C  0.05085307  0.95146776  0.31013746     1.06100
O78         O  0.94097899  0.94390072  0.32353280    -1.11100
O79         O  0.92403835  0.97662570  0.38535546    -0.73500
O80         O  0.98494640  0.93078780  0.38221518    -0.77000
O81         O  0.96516609  0.89438562  0.26769322    -0.77700
C82         C  0.96005170  0.95905572  0.39641606     0.97600
O83         O  0.91705680  0.86277839  0.35804375    -0.75700
O84         O  0.92064402  0.04061455  0.33676883    -0.80800
C85         C  0.85100219  0.97021490  0.28109591     1.00200
C86         C  0.93667169  0.05624442  0.31279351     1.06100
O87         O  0.88713931  0.95524561  0.26884050    -0.76500
C88         C  0.87453687  0.87356336  0.35939019     1.04400
Fe89       Fe  0.89843008  0.51697469  0.84472186     1.65800
Fe90       Fe  0.98192017  0.59924608  0.84385882     1.73200
Fe91       Fe  0.95805898  0.53524657  0.78218011     1.54400
O92         O  0.94886062  0.46523125  0.78910047    -0.80200
O93         O  0.97852641  0.64472384  0.80907186    -0.78500
O94         O  0.92958768  0.45368836  0.83604936    -0.82700
O95         O  0.85691150  0.50940350  0.80803552    -0.77600
O96         O  0.02650128  0.52558963  0.79114162    -0.79400
O97         O  0.92199409  0.63034540  0.85965259    -0.82100
C98         C  0.85610215  0.52300906  0.78150603     0.98700
C99         C  0.94274715  0.43884924  0.81106358     1.06100
O100        O  0.94637279  0.55078559  0.82362122    -1.11100
O101        O  0.99203517  0.56145541  0.88201888    -0.73500
O102        O  0.93089206  0.51696505  0.88510457    -0.77000
O103        O  0.89026041  0.54278062  0.76983661    -0.77700
C104        C  0.96759200  0.53288495  0.89599788     0.97600
O105        O  0.86530384  0.57889747  0.85393040    -0.75700
O106        O  0.04410895  0.57240589  0.82895780    -0.80800
C107        C  0.97621178  0.64108884  0.78131050     1.00200
C108        C  0.05510058  0.54303876  0.80916551     1.06100
O109        O  0.96943153  0.60255102  0.76865779    -0.76500
C110        C  0.87943746  0.61971392  0.85965313     1.04400
Fe111      Fe  0.61912072  0.97705591  0.84724664     1.65800
Fe112      Fe  0.53997600  0.89051114  0.84587003     1.73200
Fe113      Fe  0.56368993  0.95242403  0.78410545     1.54400
O114        O  0.57449534  0.02275284  0.78852523    -0.80200
O115        O  0.54807084  0.84327317  0.81243816    -0.78500
O116        O  0.58657891  0.03864670  0.83584884    -0.82700
O117        O  0.66246705  0.98152570  0.81107772    -0.77600
O118        O  0.49546534  0.96363583  0.79215988    -0.79400
O119        O  0.60042415  0.86315794  0.86387824    -0.82100
C120        C  0.66543313  0.96266542  0.78578132     0.98700
C121        C  0.57714202  0.05132208  0.80972923     1.06100
O122        O  0.57389637  0.93977877  0.82592402    -1.11100
O123        O  0.52563713  0.92971118  0.88277122    -0.73500
O124        O  0.58344002  0.97876111  0.88677633    -0.77000
O125        O  0.63171609  0.94179983  0.77410398    -0.77700
C126        C  0.54712374  0.96068462  0.89685483     0.97600
O127        O  0.65429310  0.91761276  0.85890630    -0.75700
O128        O  0.47765086  0.91373296  0.82821155    -0.80800
C129        C  0.54690653  0.84643910  0.78469067     1.00200
C130        C  0.46659292  0.94382234  0.80881761     1.06100
O131        O  0.55045471  0.88500336  0.77182028    -0.76500
C132        C  0.64232432  0.87616275  0.86436463     1.04400
Fe133      Fe  0.02585090  0.38840254  0.16155921     1.65800
Fe134      Fe  0.10389305  0.47603506  0.15951500     1.73200
Fe135      Fe  0.04182818  0.45613429  0.22192806     1.54400
O136        O  0.97268008  0.44498998  0.21457340    -0.80200
O137        O  0.14887411  0.47813341  0.19427174    -0.78500
O138        O  0.96205346  0.41793203  0.16881216    -0.82700
O139        O  0.02047596  0.34971747  0.19976910    -0.77600
O140        O  0.03108172  0.52409944  0.21072534    -0.79400
O141        O  0.13692015  0.41531574  0.14633227    -0.82100
C142        C  0.03401855  0.35247805  0.22631477     0.98700
C143        C  0.94700400  0.43464836  0.19286229     1.06100
O144        O  0.05733914  0.44043387  0.18095981    -1.11100
O145        O  0.06641220  0.48049780  0.12112646    -0.73500
O146        O  0.02575101  0.41592617  0.11939187    -0.77000
O147        O  0.05030908  0.38944006  0.23709437    -0.77700
C148        C  0.04095100  0.45232541  0.10748355     0.97600
O149        O  0.08792613  0.35703569  0.15412943    -0.75700
O150        O  0.07526623  0.53927158  0.17168938    -0.80800
C151        C  0.14627111  0.47729168  0.22208264     1.00200
C152        C  0.04689305  0.55160971  0.19152920     1.06100
O153        O  0.10871998  0.46993113  0.23527442    -0.76500
C154        C  0.12773015  0.37222875  0.14810557     1.04400
Fe155      Fe  0.47726665  0.10785052  0.15870023     1.65800
Fe156      Fe  0.39276818  0.02650275  0.15886368     1.73200
Fe157      Fe  0.45701972  0.04708789  0.22048786     1.54400
O158        O  0.52622080  0.05791319  0.21436858    -0.80200
O159        O  0.34819300  0.02989658  0.19372785    -0.78500
O160        O  0.53867003  0.07432032  0.16715116    -0.82700
O161        O  0.48475459  0.14880161  0.19628675    -0.77600
O162        O  0.46735821  0.97887468  0.21000860    -0.79400
O163        O  0.36384736  0.08869941  0.14423517    -0.82100
C164        C  0.46847825  0.14955640  0.22227134     0.98700
C165        C  0.55284198  0.06274648  0.19255532     1.06100
O166        O  0.44198947  0.06024115  0.17920494    -1.11100
O167        O  0.42819528  0.01696368  0.12004526    -0.73500
O168        O  0.47535288  0.07662002  0.11756347    -0.77000
O169        O  0.44841015  0.11486504  0.23333171    -0.77700
C170        C  0.45617045  0.04174134  0.10592871     0.97600
O171        O  0.41790549  0.14310611  0.14962174    -0.75700
O172        O  0.41879042  0.96258058  0.17287694    -0.80800
C173        C  0.35209019  0.02960173  0.22145742     1.00200
C174        C  0.44922061  0.95079299  0.19181677     1.06100
O175        O  0.39066060  0.03398027  0.23404369    -0.76500
C176        C  0.37682739  0.13097065  0.14418639     1.04400
C177        C  0.24074242  0.31606951  0.12587036     0.14100
C178        C  0.23663072  0.27221784  0.13895205     0.01100
C179        C  0.19712499  0.26179005  0.15514595     0.16100
C180        C  0.16172892  0.29408655  0.15764692     0.25500
C181        C  0.16514511  0.33789684  0.14421294    -0.40900
C182        C  0.20535687  0.34877647  0.12856382     0.32500
C183        C  0.27394399  0.23757888  0.13687165     0.01100
F184        F  0.19345845  0.22071849  0.16946127    -0.13200
F185        F  0.21037248  0.39081442  0.11568215    -0.13700
C186        C  0.31788762  0.24808295  0.14755513     0.16100
C187        C  0.35192804  0.21401148  0.14846909     0.25500
C188        C  0.34243207  0.16823458  0.13921000    -0.40800
C189        C  0.29865736  0.15828545  0.12756685     0.32400
C190        C  0.26485176  0.19275274  0.12628594     0.14100
F191        F  0.32717192  0.29071686  0.15874104    -0.13200
F192        F  0.28815503  0.11510157  0.11784150    -0.13700
F193        F  0.39342104  0.22560352  0.15997374    -0.16000
F194        F  0.22276476  0.18214185  0.11525856    -0.14500
F195        F  0.27891012  0.32709024  0.11033833    -0.14500
F196        F  0.12488254  0.28291115  0.17432287    -0.15900
C197        C  0.54360049  0.00997129  0.97477041     0.14100
C198        C  0.49880898  0.99912783  0.98381278     0.01100
C199        C  0.46914853  0.97712693  0.96372423     0.16100
C200        C  0.48436404  0.96539549  0.93532890     0.25500
C201        C  0.52971621  0.97546443  0.92638268    -0.40900
C202        C  0.55884641  0.99849741  0.94646728     0.32500
C203        C  0.48403235  0.01024954  0.01442630     0.01100
F204        F  0.42522729  0.96743169  0.97148189    -0.13200
F205        F  0.60282007  0.00873628  0.93919127    -0.13700
C206        C  0.48723553  0.05583274  0.02513721     0.16100
C207        C  0.47849176  0.06583775  0.05478075     0.25500
C208        C  0.46574518  0.03051061  0.07446931    -0.40800
C209        C  0.46055105  0.98510927  0.06340161     0.32400
C210        C  0.46979173  0.97509513  0.03371609     0.14100
F211        F  0.49873604  0.09088768  0.00674158    -0.13200
F212        F  0.44784341  0.95004344  0.08145610    -0.13700
F213        F  0.48161194  0.11047032  0.06402916    -0.16000
F214        F  0.46639230  0.93068850  0.02407313    -0.14500
F215        F  0.57332111  0.03049818  0.99380848    -0.14500
F216        F  0.45444047  0.94450096  0.91657739    -0.15900
C217        C  0.03106506  0.52526664  0.96965548     0.14100
C218        C  0.00447635  0.49273586  0.98485791     0.01100
C219        C  0.96735432  0.47177340  0.97039767     0.16100
C220        C  0.95596407  0.48408102  0.94148381     0.25500
C221        C  0.98164237  0.51783016  0.92622690    -0.40900
C222        C  0.01998116  0.53760698  0.94062249     0.32500
C223        C  0.01400333  0.48211957  0.01623810     0.01100
F224        F  0.94106698  0.44033542  0.98469286    -0.13200
F225        F  0.04650083  0.56947616  0.92691603    -0.13700
C226        C  0.00794274  0.51652704  0.03784110     0.16100
C227        C  0.01599679  0.50661591  0.06759116     0.25500
C228        C  0.02975272  0.46195988  0.07629151    -0.40800
C229        C  0.03546868  0.42736887  0.05468700     0.32400
C230        C  0.02780904  0.43744046  0.02486813     0.14100
F231        F  0.99342548  0.55957306  0.03010910    -0.13200
F232        F  0.05028126  0.38437220  0.06233897    -0.13700
F233        F  0.00952966  0.54042715  0.08801801    -0.16000
F234        F  0.03484887  0.40391633  0.00431841    -0.14500
F235        F  0.06780788  0.54521090  0.98303075    -0.14500
F236        F  0.91925325  0.46314822  0.92871278    -0.15900
C237        C  0.70309454  0.76364499  0.88521621     0.14100
C238        C  0.74632638  0.76941805  0.87197121     0.01100
C239        C  0.75617202  0.81176874  0.85823748     0.16100
C240        C  0.72314741  0.84714623  0.85707255     0.25500
C241        C  0.67913505  0.84093363  0.86945710    -0.40900
C242        C  0.66976774  0.79883546  0.88383290     0.32500
C243        C  0.77993206  0.73035631  0.87072252     0.01100
F244        F  0.79697812  0.81802572  0.84442934    -0.13200
F245        F  0.62810939  0.79135312  0.89624098    -0.13700
C246        C  0.76719916  0.68792651  0.85792625     0.16100
C247        C  0.79898588  0.65165378  0.85529697     0.25500
C248        C  0.84471039  0.65695552  0.86518731    -0.40800
C249        C  0.85730604  0.69949112  0.87827333     0.32400
C250        C  0.82523225  0.73567147  0.88105085     0.14100
F251        F  0.72429906  0.68221988  0.84669023    -0.13200
F252        F  0.90073872  0.70634143  0.88832389    -0.13700
F253        F  0.78526545  0.61207660  0.84172659    -0.16000
F254        F  0.83849390  0.77603317  0.89384217    -0.14500
F255        F  0.69291555  0.72352205  0.89922605    -0.14500
F256        F  0.73350318  0.88637622  0.84209288    -0.15900
C257        C  0.94083065  0.17298068  0.27762725     0.14100
C258        C  0.97989511  0.19203318  0.29113560     0.01100
C259        C  0.00017320  0.16926229  0.31524728     0.16100
C260        C  0.98323856  0.12624921  0.32444209     0.25500
C261        C  0.94612637  0.10582302  0.30946784    -0.40900
C262        C  0.92424289  0.13008328  0.28660733     0.32500
C263        C  0.00172503  0.23265469  0.27745569     0.01100
F264        F  0.03820314  0.18699238  0.32838354    -0.13200
F265        F  0.88844033  0.11081657  0.27181482    -0.13700
C266        C  0.99787768  0.27686585  0.29012371     0.16100
C267        C  0.01142074  0.31606206  0.27422229     0.25500
C268        C  0.02831806  0.31137237  0.24530298    -0.40800
C269        C  0.03430752  0.26672419  0.23343229     0.32400
C270        C  0.02163745  0.22774764  0.24951022     0.14100
F271        F  0.97823352  0.28225272  0.31699631    -0.13200
F272        F  0.05077875  0.26082394  0.20576383    -0.13700
F273        F  0.00441247  0.35868597  0.28611494    -0.16000
F274        F  0.02667094  0.18509678  0.23720965    -0.14500
F275        F  0.92042164  0.19482419  0.25453760    -0.14500
F276        F  0.00546318  0.10274704  0.34613048    -0.15900
C277        C  0.97346041  0.65550142  0.20849779     0.14100
C278        C  0.00683795  0.69019470  0.21124503     0.01100
C279        C  0.05224491  0.68074834  0.20250372     0.16100
C280        C  0.06476375  0.63605104  0.19343433     0.25500
C281        C  0.03215849  0.60032022  0.19354392    -0.40900
C282        C  0.98610987  0.61077293  0.20010490     0.32500
C283        C  0.99570060  0.73307352  0.22763791     0.01100
F284        F  0.08522131  0.71358324  0.20524277    -0.13200
F285        F  0.95378695  0.57704031  0.19989952    -0.13700
C286        C  0.98065166  0.72966184  0.25690096     0.16100
C287        C  0.97148011  0.76933813  0.27340651     0.25500
C288        C  0.97767704  0.81361764  0.26114669    -0.40800
C289        C  0.99211288  0.81701989  0.23154975     0.32400
C290        C  0.00120466  0.77698417  0.21499119     0.14100
F291        F  0.97618462  0.68760739  0.26989508    -0.13200
F292        F  0.99895005  0.85895244  0.21887631    -0.13700
F293        F  0.95674903  0.76416703  0.30154465    -0.16000
F294        F  0.01557445  0.78104731  0.18669595    -0.14500
F295        F  0.92908908  0.66430698  0.21587105    -0.14500
F296        F  0.10951401  0.62669241  0.18741024    -0.15900
C297        C  0.17916818  0.94542220  0.29813112     0.14100
C298        C  0.18772317  0.99078437  0.28841749     0.01100
C299        C  0.15287512  0.02433002  0.29053812     0.16100
C300        C  0.10900148  0.01196498  0.29975887     0.25500
C301        C  0.09921956  0.96579471  0.30722471    -0.40900
C302        C  0.13510136  0.93298893  0.30761241     0.32500
C303        C  0.23017616  0.00185393  0.27213939     0.01100
F304        F  0.16076237  0.06862247  0.28201315    -0.13200
F305        F  0.12661141  0.88815645  0.31460373    -0.13700
C306        C  0.22696404  0.01386757  0.24227167     0.16100
C307        C  0.26625789  0.02424544  0.22615852     0.25500
C308        C  0.31009217  0.02240898  0.23950128    -0.40800
C309        C  0.31309869  0.01098976  0.26973116     0.32400
C310        C  0.27342736  0.00062855  0.28582820     0.14100
F311        F  0.18550357  0.01456679  0.22844515    -0.13200
F312        F  0.35437790  0.00885974  0.28368357    -0.13700
F313        F  0.26106694  0.03584413  0.19736124    -0.16000
F314        F  0.27718563  0.98958585  0.31479231    -0.14500
F315        F  0.21238981  0.91240711  0.29620248    -0.14500
F316        F  0.07539084  0.04475904  0.30007350    -0.15900
C317        C  0.72582018  0.98565191  0.26185631     0.14100
C318        C  0.72852997  0.00333022  0.23312025     0.01100
C319        C  0.77118364  0.00472549  0.21888333     0.16100
C320        C  0.81112138  0.99116097  0.23387590     0.25500
C321        C  0.80876926  0.97634591  0.26339702    -0.40900
C322        C  0.76556637  0.97236334  0.27689523     0.32500
C323        C  0.68713369  0.02338336  0.21921560     0.01100
F324        F  0.77444946  0.02187645  0.19115282    -0.13200
F325        F  0.76189765  0.95653532  0.30493611    -0.13700
C326        C  0.66460029  0.06055012  0.23308807     0.16100
C327        C  0.62214410  0.07584724  0.22270257     0.25500
C328        C  0.60175456  0.05451278  0.19813598    -0.40800
C329        C  0.62565588  0.01965066  0.18288476     0.32400
C330        C  0.66823638  0.00399291  0.19346604     0.14100
F331        F  0.68291402  0.08073005  0.25748235    -0.13200
F332        F  0.60606451  0.99821888  0.15937241    -0.13700
F333        F  0.59974816  0.11010346  0.23747667    -0.16000
F334        F  0.68942814  0.96790606  0.17984573    -0.14500
F335        F  0.68463385  0.98256360  0.27566745    -0.14500
F336        F  0.85226297  0.99563799  0.22021093    -0.15900
C337        C  0.69575249  0.74148178  0.35102843     0.14100
C338        C  0.73399202  0.73304498  0.36927612     0.01100
C339        C  0.73654774  0.69085733  0.38470827     0.16100
C340        C  0.70169463  0.65766416  0.38170178     0.25500
C341        C  0.66321310  0.66634653  0.36358401    -0.40900
C342        C  0.66070103  0.70880457  0.34836228     0.32500
C343        C  0.77160882  0.76780572  0.37096876     0.01100
F344        F  0.77266022  0.68190238  0.40285225    -0.13200
F345        F  0.62532797  0.71793988  0.32963996    -0.13700
C346        C  0.76167288  0.81433676  0.37776005     0.16100
C347        C  0.79546406  0.84842741  0.37517545     0.25500
C348        C  0.84033345  0.83673008  0.36604575    -0.40800
C349        C  0.85093773  0.78957729  0.36113764     0.32400
C350        C  0.81687846  0.75561951  0.36338237     0.14100
F351        F  0.71876553  0.82697192  0.38635942    -0.13200
F352        F  0.89364247  0.77636732  0.35252220    -0.13700
F353        F  0.78386388  0.89305042  0.38121546    -0.16000
F354        F  0.82763363  0.71113199  0.35640795    -0.14500
F355        F  0.69315739  0.78081003  0.33474176    -0.14500
F356        F  0.70545791  0.61721637  0.39671230    -0.15900
C357        C  0.51732952  0.73016375  0.21372575     0.14100
C358        C  0.50845105  0.77241603  0.22790839     0.01100
C359        C  0.51210284  0.77541927  0.25862649     0.16100
C360        C  0.52284658  0.73630758  0.27523552     0.25500
C361        C  0.53017152  0.69314977  0.26137997    -0.40900
C362        C  0.52831904  0.69070585  0.23031450     0.32500
C363        C  0.49429514  0.81389151  0.21135334     0.01100
F364        F  0.50411603  0.81629457  0.27261739    -0.13200
F365        F  0.53516260  0.64989902  0.21603586    -0.13700
C366        C  0.44746342  0.82238144  0.20590115     0.16100
C367        C  0.43265550  0.86637687  0.19692737     0.25500
C368        C  0.46460911  0.90228836  0.19374008    -0.40800
C369        C  0.51176397  0.89267149  0.19719434     0.32400
C370        C  0.52648598  0.84871204  0.20589562     0.14100
F371        F  0.41587560  0.78917503  0.21159787    -0.13200
F372        F  0.54336588  0.92666448  0.19369849    -0.13700
F373        F  0.38696135  0.87502106  0.19416565    -0.16000
F374        F  0.57185745  0.84098561  0.21102687    -0.14500
F375        F  0.51453798  0.72703053  0.18393050    -0.14500
F376        F  0.52550980  0.74074906  0.30498460    -0.15900
C377        C  0.49261706  0.22880938  0.28745843     0.14100
C378        C  0.49597721  0.27193781  0.27349034     0.01100
C379        C  0.48787160  0.27502020  0.24304961     0.16100
C380        C  0.47773194  0.23545219  0.22658972     0.25500
C381        C  0.47496565  0.19190842  0.24030972    -0.40900
C382        C  0.48178584  0.18907296  0.27104830     0.32500
C383        C  0.50832502  0.31427895  0.29003915     0.01100
F384        F  0.49092736  0.31644802  0.22910841    -0.13200
F385        F  0.47988107  0.14762806  0.28503364    -0.13700
C386        C  0.55372174  0.32148136  0.29968423     0.16100
C387        C  0.56763099  0.36552231  0.30927226     0.25500
C388        C  0.53623870  0.40269954  0.30905721    -0.40800
C389        C  0.48997517  0.39419977  0.30182220     0.32400
C390        C  0.47619201  0.35040081  0.29236438     0.14100
F391        F  0.58532094  0.28691491  0.29755471    -0.13200
F392        F  0.45851803  0.42908356  0.30248365    -0.13700
F393        F  0.61246164  0.37270646  0.31615694    -0.16000
F394        F  0.43196472  0.34386342  0.28376745    -0.14500
F395        F  0.50000283  0.22522281  0.31690936    -0.14500
F396        F  0.47074462  0.23981816  0.19714549    -0.15900
C397        C  0.73115532  0.50135486  0.21947341     0.14100
C398        C  0.77197777  0.49074999  0.23456137     0.01100
C399        C  0.77409752  0.49709096  0.26518342     0.16100
C400        C  0.73538146  0.51138975  0.28079151     0.25500
C401        C  0.69329029  0.51957751  0.26606050    -0.40900
C402        C  0.69210477  0.51569230  0.23502652     0.32500
C403        C  0.81246631  0.47206419  0.21889403     0.01100
F404        F  0.81382479  0.48887187  0.28011623    -0.13200
F405        F  0.65291873  0.52435495  0.21966519    -0.13700
C406        C  0.83526174  0.49870757  0.19764021     0.16100
C407        C  0.87770748  0.48394272  0.18654961     0.25500
C408        C  0.89778106  0.44274555  0.19682755    -0.40800
C409        C  0.87371107  0.41477235  0.21663206     0.32400
C410        C  0.83109626  0.42908586  0.22737657     0.14100
F411        F  0.81824991  0.54060271  0.18943607    -0.13200
F412        F  0.89294988  0.37505915  0.22700289    -0.13700
F413        F  0.90095506  0.51161035  0.16768585    -0.16000
F414        F  0.80909969  0.40221069  0.24732576    -0.14500
F415        F  0.72858423  0.49604411  0.18979241    -0.14500
F416        F  0.73921327  0.51607744  0.31047834    -0.15900
C417        C  0.27185892  0.49782555  0.24004890     0.14100
C418        C  0.26955340  0.51637212  0.26862744     0.01100
C419        C  0.22691879  0.51857581  0.28293965     0.16100
C420        C  0.18681318  0.50406345  0.26841393     0.25500
C421        C  0.18883043  0.48709109  0.23922623    -0.40900
C422        C  0.23211389  0.48326408  0.22554575     0.32500
C423        C  0.31188126  0.53452700  0.28265011     0.01100
F424        F  0.22385122  0.53667890  0.31049908    -0.13200
F425        F  0.23619695  0.46582872  0.19784392    -0.13700
C426        C  0.33624046  0.57027114  0.26884707     0.16100
C427        C  0.37982390  0.58267073  0.27893021     0.25500
C428        C  0.39962022  0.56004019  0.30323340    -0.40800
C429        C  0.37421880  0.52636035  0.31829690     0.32400
C430        C  0.33052151  0.51357357  0.30799923     0.14100
F431        F  0.31853127  0.59185115  0.24477356    -0.13200
F432        F  0.39313526  0.50337350  0.34143103    -0.13700
F433        F  0.40370834  0.61555099  0.26418546    -0.16000
F434        F  0.30783903  0.47860410  0.32147699    -0.14500
F435        F  0.31284077  0.49422402  0.22600188    -0.14500
F436        F  0.14594166  0.50871568  0.28242759    -0.15900
C437        C  0.44929999  0.50267208  0.52667322     0.14100
C438        C  0.49382404  0.49539739  0.51582661     0.01100
C439        C  0.52749589  0.47631665  0.53446326     0.16100
C440        C  0.51688255  0.46482263  0.56360241     0.25500
C441        C  0.47218085  0.47210397  0.57467970    -0.40900
C442        C  0.43851000  0.49121801  0.55576017     0.32500
C443        C  0.50511919  0.50799100  0.48508935     0.01100
F444        F  0.57097105  0.46955112  0.52454535    -0.13200
F445        F  0.39469457  0.49784642  0.56507671    -0.13700
C446        C  0.50243055  0.55433904  0.47591360     0.16100
C447        C  0.51326528  0.56641542  0.44691886     0.25500
C448        C  0.52710888  0.53223633  0.42652572    -0.40800
C449        C  0.52939206  0.48570484  0.43581072     0.32400
C450        C  0.51851660  0.47377129  0.46480596     0.14100
F451        F  0.49042153  0.58810593  0.49532480    -0.13200
F452        F  0.54148750  0.45152771  0.41670899    -0.13700
F453        F  0.51171065  0.61177479  0.43915300    -0.16000
F454        F  0.52044539  0.42861635  0.47300826    -0.14500
F455        F  0.41592281  0.52000990  0.50880889    -0.14500
F456        F  0.55068339  0.44732751  0.58106168    -0.15900
C457        C  0.23176871  0.48095620  0.74208440     0.14100
C458        C  0.23440184  0.49059753  0.77232411     0.01100
C459        C  0.27727916  0.49078803  0.78650517     0.16100
C460        C  0.31731362  0.48156269  0.77046125     0.25500
C461        C  0.31479841  0.47291799  0.73992644    -0.40900
C462        C  0.27155515  0.47259316  0.72596509     0.32500
C463        C  0.19198297  0.50251846  0.78820744     0.01100
F464        F  0.28031517  0.50052316  0.81571673    -0.13200
F465        F  0.26771151  0.46478909  0.69655949    -0.13700
C466        C  0.15795184  0.46883841  0.79183464     0.16100
C467        C  0.11385364  0.48180568  0.80061146     0.25500
C468        C  0.10334400  0.52865012  0.80603312    -0.40800
C469        C  0.13833242  0.56189758  0.80449244     0.32400
C470        C  0.18245197  0.54888419  0.79545033     0.14100
F471        F  0.16685651  0.42379297  0.78522642    -0.13200
F472        F  0.12879153  0.60740449  0.80911202    -0.13700
F473        F  0.08083738  0.44888839  0.80263556    -0.16000
F474        F  0.21478364  0.58198949  0.79142937    -0.14500
F475        F  0.19056026  0.48123966  0.72795015    -0.14500
F476        F  0.35856079  0.48340208  0.78445975    -0.15900
C477        C  0.68260725  0.44065638  0.70145884     0.14100
C478        C  0.69200931  0.48429811  0.71387200     0.01100
C479        C  0.65752027  0.51834042  0.71423005     0.16100
C480        C  0.61339701  0.50799314  0.70419182     0.25500
C481        C  0.60291204  0.46326488  0.69370791    -0.40900
C482        C  0.63836872  0.43027599  0.69121256     0.32500
C483        C  0.73557597  0.49276029  0.72974941     0.01100
F484        F  0.66561460  0.56050287  0.72647261    -0.13200
F485        F  0.62938205  0.38687381  0.68125028    -0.13700
C486        C  0.76523211  0.52842270  0.72111558     0.16100
C487        C  0.80452429  0.53851959  0.73780425     0.25500
C488        C  0.81439054  0.51342141  0.76367139    -0.40800
C489        C  0.78450213  0.47744219  0.77205307     0.32400
C490        C  0.74561411  0.46730672  0.75525320     0.14100
F491        F  0.75593918  0.55356683  0.69656522    -0.13200
F492        F  0.79302973  0.45142986  0.79637528    -0.13700
F493        F  0.83229441  0.57340879  0.72893986    -0.16000
F494        F  0.71688484  0.43336552  0.76441938    -0.14500
F495        F  0.71568945  0.40737934  0.70071746    -0.14500
F496        F  0.58019726  0.54105535  0.70621970    -0.15900
C497        C  0.52672957  0.27382276  0.78044018     0.14100
C498        C  0.51899563  0.22980384  0.76826751     0.01100
C499        C  0.49455504  0.22604879  0.74162723     0.16100
C500        C  0.47987316  0.26564830  0.72664986     0.25500
C501        C  0.48909143  0.31000753  0.73810652    -0.40900
C502        C  0.51187664  0.31366922  0.76551923     0.32500
C503        C  0.53908708  0.18765393  0.78177709     0.01100
F504        F  0.48578446  0.18377237  0.72975544    -0.13200
F505        F  0.52238025  0.35578098  0.77702088    -0.13700
C506        C  0.52431277  0.17153279  0.80937351     0.16100
C507        C  0.53911377  0.12815917  0.81979685     0.25500
C508        C  0.56868994  0.10054659  0.80263068    -0.40800
C509        C  0.58561703  0.11826765  0.77595907     0.32400
C510        C  0.57107743  0.16139998  0.76571082     0.14100
F511        F  0.49346915  0.19644433  0.82530319    -0.13200
F512        F  0.61526963  0.09301485  0.75928293    -0.13700
F513        F  0.52189980  0.11174291  0.84546216    -0.16000
F514        F  0.58708356  0.17698472  0.73948904    -0.14500
F515        F  0.55083697  0.27830248  0.80593798    -0.14500
F516        F  0.45725320  0.26050693  0.70063560    -0.15900
C517        C  0.51036365  0.66323161  0.69651069     0.14100
C518        C  0.48714795  0.68594324  0.71952702     0.01100
C519        C  0.44501576  0.66846405  0.72944561     0.16100
C520        C  0.42798943  0.62703728  0.71805634     0.25500
C521        C  0.45250731  0.60281536  0.69633061    -0.40900
C522        C  0.49304466  0.62177918  0.68492285     0.32500
C523        C  0.50809294  0.72567366  0.73499842     0.01100
F524        F  0.42153667  0.69043910  0.75122648    -0.13200
F525        F  0.51785067  0.59810945  0.66451982    -0.13700
C526        C  0.51465513  0.76792419  0.72055547     0.16100
C527        C  0.52967221  0.80678389  0.73629319     0.25500
C528        C  0.53840661  0.80393330  0.76691169    -0.40800
C529        C  0.53433249  0.76047554  0.78081418     0.32400
C530        C  0.51925154  0.72190228  0.76499779     0.14100
F531        F  0.50425255  0.77214042  0.69150414    -0.13200
F532        F  0.54341627  0.75529142  0.80999307    -0.13700
F533        F  0.53357345  0.84752510  0.72168205    -0.16000
F534        F  0.51446090  0.68085772  0.77918431    -0.14500
F535        F  0.55138205  0.67931484  0.68687059    -0.14500
F536        F  0.38901342  0.60890675  0.72955098    -0.15900
C537        C  0.02975163  0.96881766  0.53526712     0.14100
C538        C  0.00905813  0.00286634  0.51746162     0.01100
C539        C  0.00083069  0.04708242  0.52940371     0.16100
C540        C  0.01342753  0.05720500  0.55851739     0.25500
C541        C  0.03486452  0.02335246  0.57626446    -0.40900
C542        C  0.04275233  0.97898961  0.56430981     0.32500
C543        C  0.99659426  0.99237760  0.48637067     0.01100
F544        F  0.98173761  0.08094005  0.51257333    -0.13200
F545        F  0.06221167  0.94509771  0.58092649    -0.13700
C546        C  0.95098254  0.99710333  0.47655858     0.16100
C547        C  0.93922476  0.98682071  0.44732769     0.25500
C548        C  0.97290443  0.97140943  0.42721754    -0.40800
C549        C  0.01863774  0.96682977  0.43715358     0.32400
C550        C  0.03031206  0.97737530  0.46636355     0.14100
F551        F  0.91748483  0.01052254  0.49553783    -0.13200
F552        F  0.05235125  0.95279982  0.41851733    -0.13700
F553        F  0.89449019  0.99055002  0.43904341    -0.16000
F554        F  0.07485513  0.97361957  0.47503466    -0.14500
F555        F  0.03674642  0.92538203  0.52462069    -0.14500
F556        F  0.00609856  0.10071204  0.56897633    -0.15900
C557        C  0.26243395  0.30805479  0.64998957     0.14100
C558        C  0.27244947  0.26666461  0.63491910     0.01100
C559        C  0.31575809  0.26170573  0.62151213     0.16100
C560        C  0.34878081  0.29685792  0.62382347     0.25500
C561        C  0.33906081  0.33805650  0.63937016    -0.40900
C562        C  0.29515822  0.34330579  0.65211140     0.32500
C563        C  0.23874649  0.22784378  0.63487634     0.01100
F564        F  0.32616510  0.22262859  0.60619502    -0.13200
F565        F  0.28446179  0.38163324  0.66806836    -0.13700
C566        C  0.19334573  0.23449687  0.62491375     0.16100
C567        C  0.16081374  0.19892026  0.62720142     0.25500
C568        C  0.17302282  0.15559305  0.63932597    -0.40800
C569        C  0.21896305  0.14877525  0.64856461     0.32400
C570        C  0.25121988  0.18446739  0.64646488     0.14100
F571        F  0.18040092  0.27565458  0.61302095    -0.13200
F572        F  0.23244096  0.10825384  0.66108869    -0.13700
F573        F  0.11730979  0.20708266  0.61760599    -0.16000
F574        F  0.29428969  0.17727088  0.65714856    -0.14500
F575        F  0.22159589  0.31354770  0.66396908    -0.14500
F576        F  0.39026267  0.29048588  0.61082711    -0.15900
C577        C  0.36181947  0.01355006  0.78883729     0.14100
C578        C  0.32931523  0.97856928  0.78453812     0.01100
C579        C  0.34033515  0.93258671  0.79175026     0.16100
C580        C  0.38450877  0.92137304  0.80180775     0.25500
C581        C  0.41800128  0.95609279  0.80437593    -0.40900
C582        C  0.40592201  0.00243628  0.79862471     0.32500
C583        C  0.28670201  0.98949053  0.76855936     0.01100
F584        F  0.30933404  0.89831077  0.78715762    -0.13200
F585        F  0.43746693  0.03671660  0.80132454    -0.13700
C586        C  0.28798170  0.99328617  0.73781957     0.16100
C587        C  0.24849370  0.00522990  0.72210493     0.25500
C588        C  0.20682481  0.01360214  0.73695313    -0.40800
C589        C  0.20586578  0.01014150  0.76796903     0.32400
C590        C  0.24562782  0.99803938  0.78362220     0.14100
F591        F  0.32769491  0.98519466  0.72301697    -0.13200
F592        F  0.16625744  0.01697543  0.78310780    -0.13700
F593        F  0.25122219  0.00870554  0.69233221    -0.16000
F594        F  0.24410619  0.99455071  0.81342152    -0.14500
F595        F  0.35148156  0.05813060  0.78191568    -0.14500
F596        F  0.39564798  0.87628148  0.80655139    -0.15900
C597        C  0.86647326  0.96182110  0.71750477     0.14100
C598        C  0.83009147  0.99373378  0.71800900     0.01100
C599        C  0.83643746  0.03828054  0.70632738     0.16100
C600        C  0.87970547  0.05199369  0.69635095     0.25500
C601        C  0.91723593  0.02141244  0.69834044    -0.40900
C602        C  0.90980786  0.97555428  0.70782452     0.32500
C603        C  0.78854838  0.98357980  0.73528327     0.01100
F604        F  0.80136338  0.06943304  0.70647564    -0.13200
F605        F  0.94513279  0.94470449  0.70918452    -0.13700
C606        C  0.78226708  0.00630084  0.76227558     0.16100
C607        C  0.74319579  0.99825760  0.77908359     0.25500
C608        C  0.70904069  0.96735804  0.76909581    -0.40800
C609        C  0.71638254  0.94317666  0.74238250     0.32400
C610        C  0.75600785  0.95115509  0.72570094     0.14100
F611        F  0.81433513  0.03646383  0.77243022    -0.13200
F612        F  0.68529929  0.91198313  0.73226442    -0.13700
F613        F  0.73867502  0.02174009  0.80487386    -0.16000
F614        F  0.76222750  0.92792007  0.69997317    -0.14500
F615        F  0.86095846  0.91858645  0.72862005    -0.14500
F616        F  0.88573907  0.09633102  0.68734835    -0.15900
C617        C  0.94504400  0.32398788  0.77262830     0.14100
C618        C  0.98242891  0.30203962  0.78654627     0.01100
C619        C  0.00199010  0.32246805  0.81178764     0.16100
C620        C  0.98636731  0.36587151  0.82166220     0.25500
C621        C  0.95137691  0.38921704  0.80621252    -0.40900
C622        C  0.92998914  0.36736972  0.78218993     0.32500
C623        C  0.00342639  0.26071160  0.77250751     0.01100
F624        F  0.03832166  0.30209169  0.82547546    -0.13200
F625        F  0.89592930  0.38924709  0.76704968    -0.13700
C626        C  0.01944313  0.26397157  0.74346129     0.16100
C627        C  0.03415896  0.22459893  0.72831621     0.25500
C628        C  0.03327483  0.18072895  0.74188870    -0.40800
C629        C  0.02021416  0.17800301  0.77177096     0.32400
C630        C  0.00530742  0.21775742  0.78691802     0.14100
F631        F  0.01972688  0.30545023  0.72941245    -0.13200
F632        F  0.01937959  0.13664318  0.78590020    -0.13700
F633        F  0.04823830  0.22949730  0.70000296    -0.16000
F634        F  0.99040796  0.21386723  0.81510254    -0.14500
F635        F  0.92461010  0.30433543  0.74875937    -0.14500
F636        F  0.00798499  0.38679325  0.84462187    -0.15900
C637        C  0.07390547  0.82260024  0.72979434     0.14100
C638        C  0.03421866  0.80286465  0.71748087     0.01100
C639        C  0.01307345  0.82424838  0.69312902     0.16100
C640        C  0.02969939  0.86659016  0.68254726     0.25500
C641        C  0.06747402  0.88780840  0.69631734    -0.40900
C642        C  0.09027882  0.86480757  0.71937690     0.32500
C643        C  0.01330647  0.76226196  0.73192060     0.01100
F644        F  0.97454954  0.80582824  0.68102287    -0.13200
F645        F  0.12705475  0.88459433  0.73284433    -0.13700
C646        C  0.99631501  0.76655762  0.76070195     0.16100
C647        C  0.98171017  0.72756737  0.77615746     0.25500
C648        C  0.98415601  0.68317947  0.76317755    -0.40800
C649        C  0.99863462  0.67948270  0.73357297     0.32400
C650        C  0.01307846  0.71876489  0.71812734     0.14100
F651        F  0.99498806  0.80862184  0.77414503    -0.13200
F652        F  0.00136451  0.63761689  0.71999834    -0.13700
F653        F  0.96615371  0.73330600  0.80410554    -0.16000
F654        F  0.02920891  0.71397232  0.69025763    -0.14500
F655        F  0.09555006  0.80192226  0.75285770    -0.14500
F656        F  0.00658550  0.88876589  0.66067474    -0.15900
loop_ 
_geom_bond_atom_site_label_1 
_geom_bond_atom_site_label_2 
_geom_bond_distance 
_geom_bond_site_symmetry_2 
_ccdc_geom_bond_type 
Fe1          O17   2.075       .  S
Fe1           O7   2.071       .  S
Fe1          O14   2.069       .  S
Fe1           O6   2.075   1_545  S
Fe1          O12   1.962       .  S
Fe2           O5   2.045       .  S
Fe2           O9   2.094       .  S
Fe2          O13   2.055       .  S
Fe2          O18   2.094   1_455  S
Fe2          O12   1.964       .  S
Fe3          O21   2.072       .  S
Fe3           O8   2.045   1_455  S
Fe3          O15   2.050       .  S
Fe3           O4   2.065   1_545  S
Fe3          O12   1.967       .  S
O4           C11   1.269       .  A
O5           C19   1.262       .  A
O6           C11   1.271       .  A
O7           C10   1.269       .  A
O8           C20   1.270       .  A
O9           C22   1.281       .  A
C10          O15   1.266       .  A
C10         C588   1.479       .  S
C11         C641   1.470       .  S
O13          C16   1.262       .  A
O14          C16   1.265       .  A
C16         C541   1.486       .  S
O17          C22   1.278       .  A
O18          C20   1.279       .  A
C19          O21   1.265       .  A
C19         C628   1.488       .  S
C20         C601   1.477       .  S
C22         C568   1.497       .  S
Fe23         O39   2.067       .  S
Fe23         O29   2.066       .  S
Fe23         O36   2.062       .  S
Fe23         O28   2.072       .  S
Fe23         O34   1.965       .  S
Fe24         O27   2.056       .  S
Fe24         O31   2.097       .  S
Fe24         O35   2.063       .  S
Fe24         O40   2.094       .  S
Fe24         O34   1.966       .  S
Fe25         O43   2.065       .  S
Fe25         O30   2.043       .  S
Fe25         O37   2.054       .  S
Fe25         O26   2.060       .  S
Fe25         O34   1.965       .  S
O26          C33   1.268       .  A
O27          C41   1.265       .  A
O28          C33   1.270       .  A
O29          C32   1.268       .  A
O30          C42   1.270       .  A
O31          C44   1.280       .  A
C32          O37   1.267       .  A
C32         C461   1.476       .  S
C33         C521   1.465       .  S
O35          C38   1.264       .  A
O36          C38   1.264       .  A
C38         C441   1.489       .  S
O39          C44   1.275       .  A
O40          C42   1.278       .  A
C41          O43   1.265       .  A
C41         C501   1.484       .  S
C42         C481   1.477       .  S
C44         C561   1.494       .  S
Fe45         O61   2.065       .  S
Fe45         O51   2.069       .  S
Fe45         O58   2.070       .  S
Fe45         O50   2.076       .  S
Fe45         O56   1.964       .  S
Fe46         O49   2.046       .  S
Fe46         O53   2.093       .  S
Fe46         O57   2.052       .  S
Fe46         O62   2.093       .  S
Fe46         O56   1.969       .  S
Fe47         O65   2.067       .  S
Fe47         O52   2.049       .  S
Fe47         O59   2.059       .  S
Fe47         O48   2.067       .  S
Fe47         O56   1.964       .  S
O48          C55   1.270       .  A
O49          C63   1.263       .  A
O50          C55   1.272       .  A
O51          C54   1.269       .  A
O52          C64   1.270       .  A
O53          C66   1.279       .  A
C54          O59   1.267       .  A
C54         C361   1.484       .  S
C55         C428   1.472       .  S
O57          C60   1.263       .  A
O58          C60   1.266       .  A
C60         C448   1.485       .  S
O61          C66   1.274       .  A
O62          C64   1.277       .  A
C63          O65   1.266       .  A
C63         C401   1.489       .  S
C64         C388   1.477       .  S
C66         C341   1.489       .  S
Fe67         O83   2.087       .  S
Fe67         O73   2.054       .  S
Fe67         O80   2.065       .  S
Fe67         O72   2.087   1_655  S
Fe67         O78   1.971       .  S
Fe68         O71   2.068       .  S
Fe68         O75   2.067       .  S
Fe68         O79   2.064       .  S
Fe68         O84   2.074   1_565  S
Fe68         O78   1.969       .  S
Fe69         O87   2.054       .  S
Fe69         O74   2.060   1_565  S
Fe69         O81   2.063       .  S
Fe69         O70   2.047   1_655  S
Fe69         O78   1.972       .  S
O70          C77   1.269       .  A
O71          C85   1.269       .  A
O72          C77   1.275       .  A
O73          C76   1.266       .  A
O74          C86   1.268       .  A
O75          C88   1.274       .  A
C76          O81   1.265       .  A
C76         C288   1.484       .  S
C77         C301   1.476       .  S
O79          C82   1.265       .  A
O80          C82   1.266       .  A
C82         C548   1.489       .  S
O83          C88   1.277       .  A
O84          C86   1.270       .  A
C85          O87   1.266       .  A
C85         C321   1.476       .  S
C86         C261   1.467       .  S
C88         C348   1.493       .  S
Fe89        O105   2.070       .  S
Fe89         O95   2.066       .  S
Fe89        O102   2.059       .  S
Fe89         O94   2.074       .  S
Fe89        O100   1.961       .  S
Fe90         O93   2.058       .  S
Fe90         O97   2.087       .  S
Fe90        O101   2.069       .  S
Fe90        O106   2.081   1_655  S
Fe90        O100   1.968       .  S
Fe91        O109   2.068       .  S
Fe91         O96   2.050   1_655  S
Fe91        O103   2.060       .  S
Fe91         O92   2.066       .  S
Fe91        O100   1.963       .  S
O92          C99   1.270       .  A
O93         C107   1.266       .  A
O94          C99   1.271       .  A
O95          C98   1.268       .  A
O96         C108   1.270       .  A
O97         C110   1.278       .  A
C98         O103   1.267       .  A
C98         C488   1.484       .  S
C99         C621   1.470       .  S
O101        C104   1.265       .  A
O102        C104   1.264       .  A
C104        C221   1.496       .  S
O105        C110   1.276       .  A
O106        C108   1.274       .  A
C107        O109   1.267       .  A
C107        C648   1.489       .  S
C108        C468   1.470       .  S
C110        C248   1.494       .  S
Fe111       O127   2.064       .  S
Fe111       O117   2.079       .  S
Fe111       O124   2.077       .  S
Fe111       O116   2.077   1_565  S
Fe111       O122   1.956       .  S
Fe112       O115   2.051       .  S
Fe112       O119   2.090       .  S
Fe112       O123   2.062       .  S
Fe112       O128   2.089       .  S
Fe112       O122   1.961       .  S
Fe113       O131   2.061       .  S
Fe113       O118   2.045       .  S
Fe113       O125   2.055       .  S
Fe113       O114   2.066   1_565  S
Fe113       O122   1.955       .  S
O114        C121   1.268       .  A
O115        C129   1.263       .  A
O116        C121   1.271       .  A
O117        C120   1.273       .  A
O118        C130   1.272       .  A
O119        C132   1.278       .  A
C120        O125   1.268       .  A
C120        C608   1.488       .  S
C121        C508   1.478       .  S
O123        C126   1.265       .  A
O124        C126   1.269       .  A
C126        C201   1.495       .  S
O127        C132   1.273       .  A
O128        C130   1.278       .  A
C129        O131   1.264       .  A
C129        C528   1.488       .  S
C130        C581   1.470       .  S
C132        C241   1.492       .  S
Fe133       O149   2.046       .  S
Fe133       O139   2.072       .  S
Fe133       O146   2.075       .  S
Fe133       O138   2.067   1_455  S
Fe133       O144   1.968       .  S
Fe134       O137   2.048       .  S
Fe134       O141   2.083       .  S
Fe134       O145   2.057       .  S
Fe134       O150   2.078       .  S
Fe134       O144   1.967       .  S
Fe135       O153   2.077       .  S
Fe135       O140   2.051       .  S
Fe135       O147   2.060       .  S
Fe135       O136   2.066   1_455  S
Fe135       O144   1.967       .  S
O136        C143   1.271       .  A
O137        C151   1.265       .  A
O138        C143   1.271       .  A
O139        C142   1.269       .  A
O140        C152   1.270       .  A
O141        C154   1.277       .  A
C142        O147   1.266       .  A
C142        C268   1.479       .  S
C143        C408   1.463       .  S
O145        C148   1.263       .  A
O146        C148   1.266       .  A
C148        C228   1.479       .  S
O149        C154   1.272       .  A
O150        C152   1.273       .  A
C151        O153   1.267       .  A
C151        C421   1.489       .  S
C152        C281   1.471       .  S
C154        C181   1.480       .  S
Fe155       O171   2.043       .  S
Fe155       O161   2.085       .  S
Fe155       O168   2.072       .  S
Fe155       O160   2.064       .  S
Fe155       O166   1.959       .  S
Fe156       O159   2.052       .  S
Fe156       O163   2.089       .  S
Fe156       O167   2.062       .  S
Fe156       O172   2.092   1_545  S
Fe156       O166   1.963       .  S
Fe157       O175   2.067       .  S
Fe157       O162   2.046   1_545  S
Fe157       O169   2.055       .  S
Fe157       O158   2.060       .  S
Fe157       O166   1.961       .  S
O158        C165   1.268       .  A
O159        C173   1.264       .  A
O160        C165   1.269       .  A
O161        C164   1.273       .  A
O162        C174   1.271       .  A
O163        C176   1.280       .  A
C164        O169   1.268       .  A
C164        C381   1.482       .  S
C165        C328   1.464       .  S
O167        C170   1.264       .  A
O168        C170   1.267       .  A
C170        C208   1.491       .  S
O171        C176   1.271       .  A
O172        C174   1.278       .  A
C173        O175   1.265       .  A
C173        C308   1.490       .  S
C174        C368   1.471       .  S
C176        C188   1.484       .  S
C177        C178   1.406       .  A
C177        C182   1.400       .  A
C177        F195   1.358       .  S
C178        C183   1.476       .  S
C178        C179   1.402       .  A
C179        C180   1.391       .  A
C179        F184   1.359       .  S
C180        C181   1.410       .  A
C180        F196   1.356       .  S
C181        C182   1.409       .  A
C182        F185   1.358       .  S
C183        C186   1.401       .  A
C183        C190   1.406       .  A
C186        C187   1.394       .  A
C186        F191   1.358       .  S
C187        C188   1.414       .  A
C187        F193   1.357       .  S
C188        C189   1.408       .  A
C189        C190   1.398       .  A
C189        F192   1.358       .  S
C190        F194   1.358       .  S
C197        C198   1.405   1_545  A
C197        C202   1.399   1_545  A
C197        F215   1.358       .  S
C198        C203   1.490   1_566  S
C198        C199   1.406       .  A
C199        C200   1.405       .  A
C199        F204   1.358       .  S
C200        C201   1.414       .  A
C200        F216   1.358       .  S
C201        C202   1.410       .  A
C202        F205   1.357   1_565  S
C203        C206   1.405       .  A
C203        C210   1.407   1_545  A
C206        C207   1.400       .  A
C206        F211   1.358       .  S
C207        C208   1.410       .  A
C207        F213   1.358       .  S
C208        C209   1.411   1_545  A
C209        C210   1.404       .  A
C209        F212   1.358       .  S
C210        F214   1.358       .  S
C217        C218   1.404       .  A
C217        C222   1.402       .  A
C217        F235   1.358       .  S
C218        C223   1.483   1_556  S
C218        C219   1.401   1_455  A
C219        C220   1.399       .  A
C219        F224   1.358       .  S
C220        C221   1.415       .  A
C220        F236   1.358       .  S
C221        C222   1.413   1_655  A
C222        F225   1.358       .  S
C223        C226   1.405       .  A
C223        C230   1.406       .  A
C226        C227   1.400       .  A
C226        F231   1.358   1_455  S
C227        C228   1.406       .  A
C227        F233   1.358       .  S
C228        C229   1.408       .  A
C229        C230   1.402       .  A
C229        F232   1.358       .  S
C230        F234   1.358       .  S
C237        C238   1.408       .  A
C237        C242   1.403       .  A
C237        F255   1.358       .  S
C238        C243   1.491       .  S
C238        C239   1.405       .  A
C239        C240   1.400       .  A
C239        F244   1.358       .  S
C240        C241   1.413       .  A
C240        F256   1.358       .  S
C241        C242   1.409       .  A
C242        F245   1.357       .  S
C243        C246   1.405       .  A
C243        C250   1.407       .  A
C246        C247   1.400       .  A
C246        F251   1.358       .  S
C247        C248   1.412       .  A
C247        F253   1.358       .  S
C248        C249   1.412       .  A
C249        C250   1.404       .  A
C249        F252   1.358       .  S
C250        F254   1.358       .  S
C257        C258   1.404       .  A
C257        C262   1.394       .  A
C257        F275   1.358       .  S
C258        C263   1.476   1_655  S
C258        C259   1.405   1_655  A
C259        C260   1.404   1_455  A
C259        F264   1.357       .  S
C260        C261   1.406       .  A
C260        F276   1.358   1_655  S
C261        C262   1.403       .  A
C262        F265   1.358       .  S
C263        C266   1.403   1_455  A
C263        C270   1.403       .  A
C266        C267   1.403   1_655  A
C266        F271   1.357       .  S
C267        C268   1.410       .  A
C267        F273   1.358       .  S
C268        C269   1.406       .  A
C269        C270   1.395       .  A
C269        F272   1.356       .  S
C270        F274   1.358       .  S
C277        C278   1.404   1_655  A
C277        C282   1.394       .  A
C277        F295   1.358       .  S
C278        C283   1.478   1_455  S
C278        C279   1.407       .  A
C279        C280   1.401       .  A
C279        F284   1.358       .  S
C280        C281   1.405       .  A
C280        F296   1.358       .  S
C281        C282   1.406   1_455  A
C282        F285   1.358       .  S
C283        C286   1.404       .  A
C283        C290   1.403   1_655  A
C286        C287   1.393       .  A
C286        F291   1.358       .  S
C287        C288   1.408       .  A
C287        F293   1.358       .  S
C288        C289   1.413       .  A
C289        C290   1.402   1_655  A
C289        F292   1.358       .  S
C290        F294   1.358       .  S
C297        C298   1.407       .  A
C297        C302   1.403       .  A
C297        F315   1.358       .  S
C298        C303   1.479   1_565  S
C298        C299   1.403   1_565  A
C299        C300   1.394       .  A
C299        F304   1.358       .  S
C300        C301   1.407   1_545  A
C300        F316   1.359       .  S
C301        C302   1.407       .  A
C302        F305   1.358       .  S
C303        C306   1.403       .  A
C303        C310   1.402       .  A
C306        C307   1.394       .  A
C306        F311   1.359       .  S
C307        C308   1.411       .  A
C307        F313   1.358       .  S
C308        C309   1.414       .  A
C309        C310   1.403       .  A
C309        F312   1.358       .  S
C310        F314   1.358   1_545  S
C317        C318   1.405   1_565  A
C317        C322   1.394       .  A
C317        F335   1.358       .  S
C318        C323   1.475       .  S
C318        C319   1.403       .  A
C319        C320   1.400   1_545  A
C319        F324   1.358       .  S
C320        C321   1.410       .  A
C320        F336   1.358       .  S
C321        C322   1.406       .  A
C322        F325   1.358       .  S
C323        C326   1.404       .  A
C323        C330   1.406       .  A
C326        C327   1.392       .  A
C326        F331   1.358       .  S
C327        C328   1.404       .  A
C327        F333   1.359       .  S
C328        C329   1.404       .  A
C329        C330   1.401       .  A
C329        F332   1.358   1_545  S
C330        F334   1.357   1_545  S
C337        C338   1.406       .  A
C337        C342   1.398       .  A
C337        F355   1.358       .  S
C338        C343   1.491       .  S
C338        C339   1.408       .  A
C339        C340   1.405       .  A
C339        F344   1.358       .  S
C340        C341   1.409       .  A
C340        F356   1.358       .  S
C341        C342   1.410       .  A
C342        F345   1.358       .  S
C343        C346   1.407       .  A
C343        C350   1.406       .  A
C346        C347   1.400       .  A
C346        F351   1.358       .  S
C347        C348   1.411       .  A
C347        F353   1.358       .  S
C348        C349   1.412       .  A
C349        C350   1.402       .  A
C349        F352   1.357       .  S
C350        F354   1.358       .  S
C357        C358   1.401       .  A
C357        C362   1.403       .  A
C357        F375   1.357       .  S
C358        C363   1.472       .  S
C358        C359   1.401       .  A
C359        C360   1.393       .  A
C359        F364   1.358       .  S
C360        C361   1.410       .  A
C360        F376   1.358       .  S
C361        C362   1.413       .  A
C362        F365   1.358       .  S
C363        C366   1.405       .  A
C363        C370   1.401       .  A
C366        C367   1.401       .  A
C366        F371   1.358       .  S
C367        C368   1.404       .  A
C367        F373   1.358       .  S
C368        C369   1.408       .  A
C369        C370   1.395       .  A
C369        F372   1.358       .  S
C370        F374   1.358       .  S
C377        C378   1.403       .  A
C377        C382   1.403       .  A
C377        F395   1.357       .  S
C378        C383   1.478       .  S
C378        C379   1.404       .  A
C379        C380   1.396       .  A
C379        F384   1.358       .  S
C380        C381   1.407       .  A
C380        F396   1.357       .  S
C381        C382   1.411       .  A
C382        F385   1.358       .  S
C383        C386   1.407       .  A
C383        C390   1.402       .  A
C386        C387   1.404       .  A
C386        F391   1.358       .  S
C387        C388   1.407       .  A
C387        F393   1.358       .  S
C388        C389   1.408       .  A
C389        C390   1.395       .  A
C389        F392   1.359       .  S
C390        F394   1.358       .  S
C397        C398   1.403       .  A
C397        C402   1.401       .  A
C397        F415   1.357       .  S
C398        C403   1.478       .  S
C398        C399   1.403       .  A
C399        C400   1.394       .  A
C399        F404   1.359       .  S
C400        C401   1.413       .  A
C400        F416   1.358       .  S
C401        C402   1.413       .  A
C402        F405   1.357       .  S
C403        C406   1.406       .  A
C403        C410   1.406       .  A
C406        C407   1.400       .  A
C406        F411   1.358       .  S
C407        C408   1.403       .  A
C407        F413   1.357       .  S
C408        C409   1.402       .  A
C409        C410   1.395       .  A
C409        F412   1.358       .  S
C410        F414   1.358       .  S
C417        C418   1.404       .  A
C417        C422   1.395       .  A
C417        F435   1.358       .  S
C418        C423   1.482       .  S
C418        C419   1.404       .  A
C419        C420   1.404       .  A
C419        F424   1.358       .  S
C420        C421   1.413       .  A
C420        F436   1.357       .  S
C421        C422   1.411       .  A
C422        F425   1.359       .  S
C423        C426   1.405       .  A
C423        C430   1.407       .  A
C426        C427   1.395       .  A
C426        F431   1.358       .  S
C427        C428   1.404       .  A
C427        F433   1.359       .  S
C428        C429   1.405       .  A
C429        C430   1.404       .  A
C429        F432   1.357       .  S
C430        F434   1.357       .  S
C437        C438   1.403       .  A
C437        C442   1.399       .  A
C437        F455   1.358       .  S
C438        C443   1.481       .  S
C438        C439   1.404       .  A
C439        C440   1.401       .  A
C439        F444   1.358       .  S
C440        C441   1.411       .  A
C440        F456   1.358       .  S
C441        C442   1.412       .  A
C442        F445   1.358       .  S
C443        C446   1.404       .  A
C443        C450   1.404       .  A
C446        C447   1.400       .  A
C446        F451   1.358       .  S
C447        C448   1.410       .  A
C447        F453   1.358       .  S
C448        C449   1.410       .  A
C449        C450   1.399       .  A
C449        F452   1.358       .  S
C450        F454   1.358       .  S
C457        C458   1.402       .  A
C457        C462   1.392       .  A
C457        F475   1.358       .  S
C458        C463   1.471       .  S
C458        C459   1.402       .  A
C459        C460   1.401       .  A
C459        F464   1.357       .  S
C460        C461   1.409       .  A
C460        F476   1.358       .  S
C461        C462   1.407       .  A
C462        F465   1.357       .  S
C463        C466   1.402       .  A
C463        C470   1.404       .  A
C466        C467   1.395       .  A
C466        F471   1.358       .  S
C467        C468   1.407       .  A
C467        F473   1.358       .  S
C468        C469   1.405       .  A
C469        C470   1.399       .  A
C469        F472   1.358       .  S
C470        F474   1.358       .  S
C477        C478   1.407       .  A
C477        C482   1.401       .  A
C477        F495   1.358       .  S
C478        C483   1.478       .  S
C478        C479   1.402       .  A
C479        C480   1.395       .  A
C479        F484   1.358       .  S
C480        C481   1.410       .  A
C480        F496   1.359       .  S
C481        C482   1.406       .  A
C482        F485   1.358       .  S
C483        C486   1.404       .  A
C483        C490   1.402       .  A
C486        C487   1.401       .  A
C486        F491   1.357       .  S
C487        C488   1.409       .  A
C487        F493   1.357       .  S
C488        C489   1.412       .  A
C489        C490   1.395       .  A
C489        F492   1.358       .  S
C490        F494   1.359       .  S
C497        C498   1.404       .  A
C497        C502   1.402       .  A
C497        F515   1.358       .  S
C498        C503   1.481       .  S
C498        C499   1.405       .  A
C499        C500   1.396       .  A
C499        F504   1.358       .  S
C500        C501   1.408       .  A
C500        F516   1.358       .  S
C501        C502   1.412       .  A
C502        F505   1.358       .  S
C503        C506   1.407       .  A
C503        C510   1.403       .  A
C506        C507   1.405       .  A
C506        F511   1.357       .  S
C507        C508   1.407       .  A
C507        F513   1.357       .  S
C508        C509   1.407       .  A
C509        C510   1.394       .  A
C509        F512   1.359       .  S
C510        F514   1.358       .  S
C517        C518   1.406       .  A
C517        C522   1.402       .  A
C517        F535   1.358       .  S
C518        C523   1.477       .  S
C518        C519   1.405       .  A
C519        C520   1.394       .  A
C519        F524   1.358       .  S
C520        C521   1.403       .  A
C520        F536   1.358       .  S
C521        C522   1.405       .  A
C522        F525   1.358       .  S
C523        C526   1.401       .  A
C523        C530   1.403       .  A
C526        C527   1.400       .  A
C526        F531   1.358       .  S
C527        C528   1.415       .  A
C527        F533   1.357       .  S
C528        C529   1.412       .  A
C529        C530   1.395       .  A
C529        F532   1.358       .  S
C530        F534   1.358       .  S
C537        C538   1.406   1_565  A
C537        C542   1.401       .  A
C537        F555   1.358       .  S
C538        C543   1.487   1_445  S
C538        C539   1.406       .  A
C539        C540   1.401       .  A
C539        F544   1.358   1_455  S
C540        C541   1.410       .  A
C540        F556   1.358       .  S
C541        C542   1.408   1_545  A
C542        F545   1.358       .  S
C543        C546   1.405       .  A
C543        C550   1.406   1_655  A
C546        C547   1.401       .  A
C546        F551   1.358   1_565  S
C547        C548   1.412       .  A
C547        F553   1.358       .  S
C548        C549   1.410   1_655  A
C549        C550   1.401       .  A
C549        F552   1.358       .  S
C550        F554   1.358       .  S
C557        C558   1.405       .  A
C557        C562   1.400       .  A
C557        F575   1.358       .  S
C558        C563   1.493       .  S
C558        C559   1.408       .  A
C559        C560   1.405       .  A
C559        F564   1.357       .  S
C560        C561   1.410       .  A
C560        F576   1.357       .  S
C561        C562   1.412       .  A
C562        F565   1.357       .  S
C563        C566   1.408       .  A
C563        C570   1.405       .  A
C566        C567   1.405       .  A
C566        F571   1.358       .  S
C567        C568   1.412       .  A
C567        F573   1.358       .  S
C568        C569   1.413       .  A
C569        C570   1.401       .  A
C569        F572   1.358       .  S
C570        F574   1.358       .  S
C577        C578   1.400   1_545  A
C577        C582   1.393       .  A
C577        F595   1.358       .  S
C578        C583   1.468       .  S
C578        C579   1.404       .  A
C579        C580   1.400       .  A
C579        F584   1.358       .  S
C580        C581   1.406       .  A
C580        F596   1.358       .  S
C581        C582   1.407   1_565  A
C582        F585   1.358       .  S
C583        C586   1.401       .  A
C583        C590   1.400       .  A
C586        C587   1.393   1_565  A
C586        F591   1.358       .  S
C587        C588   1.409       .  A
C587        F593   1.358       .  S
C588        C589   1.412       .  A
C589        C590   1.399   1_545  A
C589        F592   1.358       .  S
C590        F594   1.358       .  S
C597        C598   1.401       .  A
C597        C602   1.397       .  A
C597        F615   1.358       .  S
C598        C603   1.475       .  S
C598        C599   1.406   1_565  A
C599        C600   1.399       .  A
C599        F604   1.358       .  S
C600        C601   1.404       .  A
C600        F616   1.357       .  S
C601        C602   1.411   1_545  A
C602        F605   1.359       .  S
C603        C606   1.401   1_565  A
C603        C610   1.402       .  A
C606        C607   1.393   1_545  A
C606        F611   1.358       .  S
C607        C608   1.412       .  A
C607        F613   1.358   1_565  S
C608        C609   1.414       .  A
C609        C610   1.402       .  A
C609        F612   1.358       .  S
C610        F614   1.358       .  S
C617        C618   1.406       .  A
C617        C622   1.394       .  A
C617        F635   1.358       .  S
C618        C623   1.482   1_655  S
C618        C619   1.407   1_655  A
C619        C620   1.404   1_455  A
C619        F624   1.357       .  S
C620        C621   1.405       .  A
C620        F636   1.358   1_655  S
C621        C622   1.404       .  A
C622        F625   1.359       .  S
C623        C626   1.404       .  A
C623        C630   1.405       .  A
C626        C627   1.394       .  A
C626        F631   1.359       .  S
C627        C628   1.411       .  A
C627        F633   1.358       .  S
C628        C629   1.413       .  A
C629        C630   1.404       .  A
C629        F632   1.358       .  S
C630        F634   1.358   1_455  S
C637        C638   1.404       .  A
C637        C642   1.395       .  A
C637        F655   1.358       .  S
C638        C643   1.479       .  S
C638        C639   1.406       .  A
C639        C640   1.404       .  A
C639        F644   1.357   1_455  S
C640        C641   1.405       .  A
C640        F656   1.358       .  S
C641        C642   1.404       .  A
C642        F645   1.359       .  S
C643        C646   1.404   1_455  A
C643        C650   1.402       .  A
C646        C647   1.397       .  A
C646        F651   1.358       .  S
C647        C648   1.411       .  A
C647        F653   1.358       .  S
C648        C649   1.413       .  A
C649        C650   1.402   1_655  A
C649        F652   1.358   1_655  S
C650        F654   1.358       .  S
