geometry optimzed in LAMMPS
_audit_creation_date              2020-12-01 
_audit_creation_method            'lammps2cif' 
_symmetry_space_group_name_H-M    'P1' 
_symmetry_Int_Tables_number       1 
_symmetry_cell_setting            triclinic 
loop_ 
_symmetry_equiv_pos_as_xyz 
  x,y,z 
_cell_length_a                    50.11176834 
_cell_length_b                    50.53639811876732 
_cell_length_c                    30.00809300876771 
_cell_angle_alpha                 90.02946336929894 
_cell_angle_beta                  89.97029098417697 
_cell_angle_gamma                 90.16422435367298 
loop_ 
_atom_site_label 
_atom_site_type_symbol 
_atom_site_fract_x 
_atom_site_fract_y 
_atom_site_fract_z 
_atom_site_charge 
Fe1        Fe  0.70573378  0.48032530  0.69160826     1.65800
Fe2        Fe  0.64466019  0.45920093  0.72904174     1.73200
Fe3        Fe  0.67816748  0.42344394  0.65022348     1.54400
O4          O  0.69399210  0.44416566  0.59752187    -0.80200
O5          O  0.63948996  0.41976517  0.74433927    -0.78500
O6          O  0.71131994  0.48144069  0.62343912    -0.82700
O7          O  0.73424680  0.45051388  0.69767885    -0.77600
O8          O  0.64074546  0.43101821  0.62548800    -0.79400
O9          O  0.66826428  0.46274806  0.78551155    -0.82100
C10         C  0.73533778  0.42586381  0.68869925     0.98700
C11         C  0.70684068  0.46547299  0.59173431     1.06100
O12         O  0.67615518  0.45433800  0.69012053    -1.11100
O13         O  0.64408120  0.49954462  0.72129759    -0.73500
O14         O  0.68058864  0.51308329  0.68577307    -0.77000
O15         O  0.71577281  0.41343431  0.67169786    -0.77700
C16         C  0.65789710  0.51757066  0.70315210     0.97600
O17         O  0.70497352  0.48257112  0.76023570    -0.75700
O18         O  0.61852077  0.45580026  0.67523441    -0.80800
C19         C  0.64744399  0.39793700  0.72869039     1.00200
C20         C  0.62018811  0.44365067  0.63809145     1.06100
O21         O  0.66295843  0.39677034  0.69552037    -0.76500
C22         C  0.69083206  0.47369990  0.79203953     1.04400
Fe23       Fe  0.77824783  0.47752986  0.19429231     1.65800
Fe24       Fe  0.80434311  0.41990454  0.15513576     1.73200
Fe25       Fe  0.84051487  0.45709105  0.22803038     1.54400
O26         O  0.84422591  0.49557125  0.20624197    -0.80200
O27         O  0.82372767  0.39531217  0.19894665    -0.78500
O28         O  0.80370801  0.51004179  0.18747909    -0.82700
O29         O  0.77917696  0.47997665  0.26246128    -0.77600
O30         O  0.86554905  0.44645600  0.17562069    -0.79400
O31         O  0.76894082  0.40914044  0.18490103    -0.82100
C32         C  0.79605652  0.47571270  0.29298371     0.98700
C33         C  0.82872365  0.51352345  0.19213456     1.06100
O34         O  0.80768766  0.45159417  0.19259651    -1.11100
O35         O  0.78423549  0.43839011  0.10439961    -0.73500
O36         O  0.77282786  0.47860172  0.12605279    -0.77000
O37         O  0.81968561  0.46800611  0.28497325    -0.77700
C38         C  0.77399111  0.46073229  0.09654182     0.97600
O39         O  0.74960075  0.44763713  0.20168339    -0.75700
O40         O  0.83938806  0.42885174  0.12287915    -0.80800
C41         C  0.83561291  0.39702285  0.23601422     1.00200
C42         C  0.86171927  0.43764963  0.13643511     1.06100
O43         O  0.84098326  0.41917764  0.25364200    -0.76500
C44         C  0.74918941  0.42240660  0.19916891     1.04400
Fe45       Fe  0.98173996  0.20042619  0.33594019     1.65800
Fe46       Fe  0.96162500  0.13816974  0.30513862     1.73200
Fe47       Fe  0.92360669  0.17461250  0.37666244     1.54400
O48         O  0.94311766  0.19275576  0.42799976    -0.80200
O49         O  0.92225164  0.13211438  0.28815664    -0.78500
O50         O  0.98186161  0.20832337  0.40345777    -0.82700
O51         O  0.95182701  0.22834394  0.32547977    -0.77600
O52         O  0.93126644  0.13908605  0.40693300    -0.79400
O53         O  0.96575630  0.15912836  0.24626768    -0.82100
C54         C  0.92672363  0.22944831  0.33218813     0.98700
C55         C  0.96468508  0.20523127  0.43398962     1.06100
O56         O  0.95566624  0.17108009  0.33938750    -1.11100
O57         O  0.00216537  0.13795840  0.31569103    -0.73500
O58         O  0.01449243  0.17593707  0.34690574    -0.77000
O59         O  0.91379961  0.21052834  0.34975951    -0.77700
C60         C  0.01951619  0.15249987  0.33422745     0.97600
O61         O  0.98462067  0.19706309  0.26746007    -0.75700
O62         O  0.95744038  0.11498634  0.36203977    -0.80800
C63         C  0.89987092  0.14082380  0.30076477     1.00200
C64         C  0.94483007  0.11846724  0.39847649     1.06100
O65         O  0.89789939  0.15750758  0.33188021    -0.76500
C66         C  0.97578450  0.18166650  0.23734547     1.04400
Fe67       Fe  0.97825669  0.26844232  0.83510571     1.65800
Fe68       Fe  0.91913839  0.29400059  0.87054590     1.73200
Fe69       Fe  0.96001413  0.33005266  0.80355067     1.54400
O70         O  0.00089520  0.32821587  0.81302814    -0.80200
O71         O  0.89545897  0.30723948  0.81879259    -0.78500
O72         O  0.00974534  0.29291205  0.85450490    -0.82700
O73         O  0.98664082  0.27428730  0.76833898    -0.77600
O74         O  0.95671288  0.35287653  0.86063871    -0.79400
O75         O  0.91191862  0.25580437  0.84867000    -0.82100
C76         C  0.97615095  0.28785774  0.73735528     0.98700
C77         C  0.01666274  0.31478828  0.83703621     1.06100
O78         O  0.95242887  0.29747742  0.83686929    -1.11100
O79         O  0.93806625  0.27998383  0.92705745    -0.73500
O80         O  0.97304862  0.25799111  0.90102696    -0.77000
O81         O  0.96296189  0.30878642  0.74521577    -0.77700
C82         C  0.95745987  0.26421183  0.93261865     0.97600
O83         O  0.94910882  0.24152652  0.81566994    -0.75700
O84         O  0.92296595  0.33204705  0.89513509    -0.80800
C85         C  0.89823594  0.32699457  0.79318746     1.00200
C86         C  0.93864207  0.35176179  0.89043262     1.06100
O87         O  0.92069246  0.33807165  0.78764816    -0.76500
C88         C  0.92463396  0.23866041  0.82611369     1.04400
Fe89       Fe  0.70298710  0.99582841  0.19469336     1.65800
Fe90       Fe  0.67791768  0.05231150  0.15082509     1.73200
Fe91       Fe  0.63991890  0.01665499  0.22231965     1.54400
O92         O  0.63726172  0.97769218  0.20444098    -0.80200
O93         O  0.65464921  0.07748339  0.18806432    -0.78500
O94         O  0.67844674  0.96275602  0.19236502    -0.82700
O95         O  0.70123801  0.99625230  0.26325473    -0.77600
O96         O  0.61701462  0.02538804  0.16621415    -0.79400
O97         O  0.71109083  0.06456746  0.18521121    -0.82100
C98         C  0.68310595  0.00073692  0.29183921     0.98700
C99         C  0.65343559  0.95928298  0.19541411     1.06100
O100        O  0.67357999  0.02151039  0.18967136    -1.11100
O101        O  0.70139840  0.03342275  0.10474714    -0.73500
O102        O  0.70779483  0.99215180  0.12627147    -0.77000
O103        O  0.65953533  0.00771220  0.28139591    -0.77700
C104        C  0.70904492  0.01008516  0.09681864     0.97600
O105        O  0.73137311  0.02601219  0.19833794    -0.75700
O106        O  0.64512485  0.04127558  0.11480171    -0.80800
C107        C  0.64085152  0.07652512  0.22328920     1.00200
C108        C  0.62217643  0.03314158  0.12667769     1.06100
O109        O  0.63743579  0.05514675  0.24442498    -0.76500
C110        C  0.73125482  0.05126056  0.19756308     1.04400
Fe111      Fe  0.76952794  0.99020047  0.69400954     1.65800
Fe112      Fe  0.83273873  0.01129250  0.72168540     1.73200
Fe113      Fe  0.79369606  0.04860169  0.65406078     1.54400
O114        O  0.77090143  0.03021143  0.60611037    -0.80200
O115        O  0.83612200  0.04946058  0.74512342    -0.78500
O116        O  0.76278393  0.98876670  0.62613995    -0.82700
O117        O  0.74066687  0.01985482  0.70224290    -0.77600
O118        O  0.82690270  0.04010318  0.61729327    -0.79400
O119        O  0.81327272  0.00191535  0.78123519    -0.82100
C120        C  0.74051620  0.04514835  0.70217955     0.98700
C121        C  0.76182735  0.00733899  0.59786452     1.06100
O122        O  0.79872772  0.01658067  0.68998502    -1.11100
O123        O  0.83540243  0.97246669  0.70259185    -0.73500
O124        O  0.79473230  0.95732198  0.68683090    -0.77000
O125        O  0.76034537  0.05873830  0.68913175    -0.77700
C126        C  0.81981848  0.95405427  0.69070152     0.97600
O127        O  0.77230298  0.98873903  0.76205774    -0.75700
O128        O  0.85501416  0.02067714  0.66494000    -0.80800
C129        C  0.83049608  0.07161293  0.72805313     1.00200
C130        C  0.84964253  0.03061773  0.62688288     1.06100
O131        O  0.81559535  0.07364203  0.69426345    -0.76500
C132        C  0.78981381  0.99404557  0.79120949     1.04400
Fe133      Fe  0.49483163  0.20566998  0.83329869     1.65800
Fe134      Fe  0.55187734  0.17999347  0.87658175     1.73200
Fe135      Fe  0.51512053  0.14299616  0.80465054     1.54400
O136        O  0.47584341  0.14090803  0.82195075    -0.80200
O137        O  0.57735778  0.15765818  0.83763823    -0.78500
O138        O  0.46115092  0.18123271  0.83875043    -0.82700
O139        O  0.49460402  0.20347505  0.76463411    -0.77600
O140        O  0.52273537  0.11997649  0.86103550    -0.79400
O141        O  0.56418253  0.21338071  0.84364939    -0.82100
C142        C  0.49994729  0.18616557  0.73526331     0.98700
C143        C  0.45763283  0.15640566  0.83469962     1.06100
O144        O  0.52055346  0.17622805  0.83793317    -1.11100
O145        O  0.53291399  0.20265224  0.92389154    -0.73500
O146        O  0.49197675  0.21180073  0.90150687    -0.77000
O147        O  0.50717183  0.16276846  0.74522877    -0.77700
C148        C  0.50996167  0.21206302  0.93118781     0.97600
O149        O  0.52572432  0.23356847  0.82794413    -0.75700
O150        O  0.54082739  0.14711664  0.91165759    -0.80800
C151        C  0.57583250  0.14384476  0.80253733     1.00200
C152        C  0.53103258  0.12489230  0.90038700     1.06100
O153        O  0.55384349  0.13971408  0.78317274    -0.76500
C154        C  0.55119846  0.23346528  0.83046212     1.04400
Fe155      Fe  0.49448377  0.27523520  0.33117519     1.65800
Fe156      Fe  0.51790389  0.33638212  0.30489893     1.73200
Fe157      Fe  0.55481393  0.29629360  0.37053039     1.54400
O158        O  0.53390480  0.28266260  0.42514821    -0.80200
O159        O  0.55797245  0.34215616  0.29168800    -0.78500
O160        O  0.49771247  0.26319900  0.39738856    -0.82700
O161        O  0.52180058  0.24678007  0.31184556    -0.77600
O162        O  0.55397831  0.33402342  0.39729021    -0.79400
O163        O  0.51429545  0.31681917  0.24474399    -0.82100
C164        C  0.54586012  0.24230468  0.32290861     0.98700
C165        C  0.51346875  0.26800612  0.42965526     1.06100
O166        O  0.52235766  0.30259435  0.33599756    -1.11100
O167        O  0.47699020  0.33703111  0.31267485    -0.73500
O168        O  0.46432572  0.30118954  0.34997086    -0.77000
O169        O  0.55928308  0.25831553  0.34667786    -0.77700
C170        C  0.45952445  0.32394409  0.33393984     0.97600
O171        O  0.48809533  0.28286619  0.26369570    -0.75700
O172        O  0.52207556  0.35766489  0.36367299    -0.80800
C173        C  0.57957739  0.32966990  0.29745353     1.00200
C174        C  0.54002450  0.35492993  0.39336850     1.06100
O175        O  0.58034850  0.30877328  0.32065572    -0.76500
C176        C  0.49992191  0.29694246  0.23445934     1.04400
Fe177      Fe  0.20765884  0.98232523  0.35902480     1.65800
Fe178      Fe  0.18209154  0.92456355  0.40005188     1.73200
Fe179      Fe  0.14439815  0.96170480  0.33003939     1.54400
O180        O  0.14250394  0.00089089  0.34811568    -0.80200
O181        O  0.16080195  0.89948705  0.35917893    -0.78500
O182        O  0.18305617  0.01515440  0.36719577    -0.82700
O183        O  0.20480980  0.98477549  0.29085653    -0.77600
O184        O  0.12127063  0.95354720  0.38618505    -0.79400
O185        O  0.21629878  0.91387713  0.36707735    -0.82100
C186        C  0.18755717  0.97893815  0.26155537     0.98700
C187        C  0.15821013  0.01885824  0.36163193     1.06100
O188        O  0.17804193  0.95628469  0.36292076    -1.11100
O189        O  0.20391269  0.94295676  0.44871318    -0.73500
O190        O  0.21483403  0.98338877  0.42676440    -0.77000
O191        O  0.16441346  0.97017119  0.27105241    -0.77700
C192        C  0.21417704  0.96537958  0.45604520     0.97600
O193        O  0.23574762  0.95237355  0.35013428    -0.75700
O194        O  0.14828204  0.93383180  0.43531390    -0.80800
C195        C  0.14626352  0.90105124  0.32487941     1.00200
C196        C  0.12601277  0.94404624  0.42472701     1.06100
O197        O  0.14067032  0.92312879  0.30733626    -0.76500
C198        C  0.23596140  0.92715219  0.35222576     1.04400
Fe199      Fe  0.27407423  0.98116672  0.85827564     1.65800
Fe200      Fe  0.33681698  0.96076357  0.83014730     1.73200
Fe201      Fe  0.29952934  0.92410164  0.90250410     1.54400
O202        O  0.28241231  0.94519038  0.95394748    -0.80200
O203        O  0.34396394  0.92143261  0.81747438    -0.78500
O204        O  0.26505284  0.98181037  0.92546256    -0.82700
O205        O  0.24623750  0.95144274  0.84702357    -0.77600
O206        O  0.33612778  0.93130610  0.93131719    -0.79400
O207        O  0.31614848  0.96257139  0.77092177    -0.82100
C208        C  0.24435578  0.92694277  0.85637621     0.98700
C209        C  0.26934356  0.96648827  0.95808767     1.06100
O210        O  0.30345137  0.95534416  0.86389419    -1.11100
O211        O  0.33606674  0.00130631  0.83571325    -0.73500
O212        O  0.29850238  0.01390197  0.86877364    -0.77000
O213        O  0.26254489  0.91447347  0.87698615    -0.77700
C214        C  0.32141376  0.01893679  0.85286554     0.97600
O215        O  0.27882366  0.98383586  0.78997234    -0.75700
O216        O  0.35969173  0.95877377  0.88761355    -0.80800
C217        C  0.33455462  0.89926675  0.82901839     1.00200
C218        C  0.35671207  0.94532606  0.92318160     1.06100
O219        O  0.31605894  0.89746873  0.85769933    -0.76500
C220        C  0.29439228  0.97398171  0.76094991     1.04400
Fe221      Fe  0.48387384  0.70408204  0.71765951     1.65800
Fe222      Fe  0.42528729  0.67830072  0.67957003     1.73200
Fe223      Fe  0.46459290  0.64106937  0.74780018     1.54400
O224        O  0.50421877  0.64006999  0.73028955    -0.80200
O225        O  0.40079136  0.65700137  0.72183854    -0.78500
O226        O  0.51729693  0.68018537  0.70867226    -0.82700
O227        O  0.48690382  0.70124140  0.78569009    -0.77600
O228        O  0.45710733  0.61832567  0.69144423    -0.79400
O229        O  0.41443123  0.71261218  0.71192282    -0.82100
C230        C  0.48143829  0.68423903  0.81544362     0.98700
C231        C  0.52177174  0.65580520  0.71547841     1.06100
O232        O  0.45793180  0.67446757  0.71521614    -1.11100
O233        O  0.44313485  0.69999382  0.62963124    -0.73500
O234        O  0.48417461  0.71081746  0.64974382    -0.77000
O235        O  0.47263399  0.66116782  0.80661922    -0.77700
C236        C  0.46556520  0.71041413  0.62121961     0.97600
O237        O  0.45354119  0.73192342  0.72691673    -0.75700
O238        O  0.43442855  0.64456862  0.64488037    -0.80800
C239        C  0.40320158  0.64129889  0.75442471     1.00200
C240        C  0.44614422  0.62292935  0.65395318     1.06100
O241        O  0.42587888  0.63556374  0.77021731    -0.76500
C242        C  0.42807943  0.73233787  0.72527603     1.04400
Fe243      Fe  0.48347394  0.77156567  0.21522269     1.65800
Fe244      Fe  0.46125519  0.83310839  0.24562479     1.73200
Fe245      Fe  0.42534198  0.79551958  0.17295029     1.54400
O246        O  0.44524221  0.77482134  0.12423873    -0.80200
O247        O  0.42224047  0.83604279  0.26533253    -0.78500
O248        O  0.48619059  0.76628953  0.14734647    -0.82700
O249        O  0.45386897  0.74274213  0.22156706    -0.77600
O250        O  0.43449787  0.82949547  0.13928145    -0.79400
O251        O  0.46862250  0.81274372  0.30456855    -0.82100
C252        C  0.42843937  0.74215124  0.21999310     0.98700
C253        C  0.46862184  0.76646591  0.11713727     1.06100
O254        O  0.45675879  0.80012893  0.21137621    -1.11100
O255        O  0.50096313  0.83585379  0.23217078    -0.73500
O256        O  0.51613327  0.79674997  0.20971480    -0.77000
O257        O  0.41474806  0.76128497  0.20501931    -0.77700
C258        C  0.51956284  0.82102751  0.21883718     0.97600
O259        O  0.48421429  0.77340274  0.28364244    -0.75700
O260        O  0.45428266  0.85620159  0.18894431    -0.80800
C261        C  0.40022744  0.83018307  0.24745403     1.00200
C262        C  0.44490154  0.85154383  0.15012439     1.06100
O263        O  0.39897057  0.81571393  0.21315605    -0.76500
C264        C  0.47760640  0.78981369  0.31367640     1.04400
Fe265      Fe  0.99625658  0.70454418  0.21774333     1.65800
Fe266      Fe  0.01629853  0.64222838  0.24825976     1.73200
Fe267      Fe  0.05515151  0.67957376  0.17855098     1.54400
O268        O  0.03582352  0.69770925  0.12616734    -0.80200
O269        O  0.05506715  0.63785686  0.26897148    -0.78500
O270        O  0.99655832  0.71179911  0.15021771    -0.82700
O271        O  0.02591387  0.73306105  0.22848655    -0.77600
O272        O  0.04829797  0.64402591  0.14731988    -0.79400
O273        O  0.00917343  0.66242532  0.30694018    -0.82100
C274        C  0.05113718  0.73454644  0.22307627     0.98700
C275        C  0.01367351  0.70906125  0.11952711     1.06100
O276        O  0.02258364  0.67546641  0.21484856    -1.11100
O277        O  0.97643969  0.64073393  0.23328718    -0.73500
O278        O  0.96356252  0.67964718  0.20637707    -0.77000
O279        O  0.06452451  0.71567857  0.20637284    -0.77700
C280        C  0.95899540  0.65558447  0.21608964     0.97600
O281        O  0.99269290  0.70142207  0.28615812    -0.75700
O282        O  0.02314560  0.61896934  0.19231129    -0.80800
C283        C  0.07773658  0.64601353  0.25655832     1.00200
C284        C  0.03573815  0.62275641  0.15600532     1.06100
O285        O  0.08039027  0.66206657  0.22443836    -0.76500
C286        C  0.99957448  0.68503271  0.31608917     1.04400
Fe287      Fe  0.99664151  0.77072258  0.71953974     1.65800
Fe288      Fe  0.05582167  0.79482657  0.67947057     1.73200
Fe289      Fe  0.01706993  0.83334899  0.74691388     1.54400
O290        O  0.97665282  0.83345005  0.73568101    -0.80200
O291        O  0.08121457  0.81200969  0.72540723    -0.78500
O292        O  0.96428043  0.79549105  0.70446574    -0.82700
O293        O  0.99166238  0.77640908  0.78690865    -0.77600
O294        O  0.02210797  0.85530767  0.68868013    -0.79400
O295        O  0.06435754  0.75863706  0.70793856    -0.82100
C296        C  0.00030257  0.79209170  0.81665676     0.98700
C297        C  0.95923513  0.81901104  0.71711717     1.06100
O298        O  0.02319893  0.79961925  0.71512696    -1.11100
O299        O  0.03618938  0.77697859  0.62692314    -0.73500
O300        O  0.99819413  0.76048322  0.65314901    -0.77000
O301        O  0.01199672  0.81378036  0.80719520    -0.77700
C302        C  0.01475591  0.76396947  0.62181978     0.97600
O303        O  0.02609152  0.74277006  0.73502442    -0.75700
O304        O  0.05006905  0.83056367  0.64820426    -0.80800
C305        C  0.07881698  0.83045687  0.75366067     1.00200
C306        C  0.03639485  0.85146004  0.65408845     1.06100
O307        O  0.05627339  0.83980537  0.76388733    -0.76500
C308        C  0.05117671  0.74079766  0.72820807     1.04400
Fe309      Fe  0.27298450  0.49736369  0.36315044     1.65800
Fe310      Fe  0.29777801  0.55421355  0.40632506     1.73200
Fe311      Fe  0.33496067  0.51945918  0.33276732     1.54400
O312        O  0.33928369  0.48091334  0.35185469    -0.80200
O313        O  0.32045087  0.57979460  0.36833594    -0.78500
O314        O  0.29857798  0.46468481  0.36446573    -0.82700
O315        O  0.27351511  0.49789263  0.29481177    -0.77600
O316        O  0.35850807  0.52936359  0.38764929    -0.79400
O317        O  0.26416905  0.56609474  0.37308166    -0.82100
C318        C  0.29123315  0.50138075  0.26516942     0.98700
C319        C  0.32376225  0.46195621  0.36134640     1.06100
O320        O  0.30186889  0.52360010  0.36696048    -1.11100
O321        O  0.27476752  0.53504607  0.45285073    -0.73500
O322        O  0.26944141  0.49354702  0.43142281    -0.77000
O323        O  0.31494761  0.50860293  0.27462529    -0.77700
C324        C  0.26786119  0.51145334  0.46079698     0.97600
O325        O  0.24392121  0.52725778  0.36091531    -0.75700
O326        O  0.33087245  0.54307156  0.44131446    -0.80800
C327        C  0.33240781  0.57919744  0.33122786     1.00200
C328        C  0.35371652  0.53557074  0.42807302     1.06100
O329        O  0.33518581  0.55784711  0.30969557    -0.76500
C330        C  0.24381109  0.55258172  0.36184850     1.04400
Fe331      Fe  0.20462370  0.48890526  0.86213408     1.65800
Fe332      Fe  0.14282859  0.51265300  0.83147424     1.73200
Fe333      Fe  0.18245626  0.54801185  0.90126065     1.54400
O334        O  0.20425087  0.52878168  0.94916617    -0.80200
O335        O  0.14074909  0.55150136  0.80951872    -0.78500
O336        O  0.21048839  0.48701174  0.93045258    -0.82700
O337        O  0.23508775  0.51752214  0.85521002    -0.77600
O338        O  0.14850456  0.53999382  0.93684044    -0.79400
O339        O  0.16300859  0.50366933  0.77280648    -0.82100
C340        C  0.23632505  0.54282779  0.85510260     0.98700
C341        C  0.21260780  0.50582798  0.95817192     1.06100
O342        O  0.17654905  0.51638855  0.86483724    -1.11100
O343        O  0.13855406  0.47343233  0.84781745    -0.73500
O344        O  0.17787858  0.45694831  0.86781078    -0.77000
O345        O  0.21677756  0.55708722  0.86729653    -0.77700
C346        C  0.15291858  0.45440286  0.86088891     0.97600
O347        O  0.20253861  0.48772323  0.79403443    -0.75700
O348        O  0.12023482  0.52142105  0.88805897    -0.80800
C349        C  0.14706666  0.57337748  0.82722841     1.00200
C350        C  0.12570231  0.53064964  0.92663210     1.06100
O351        O  0.16184094  0.57425495  0.86133993    -0.76500
C352        C  0.18605164  0.49438563  0.76404896     1.04400
C353        C  0.19696373  0.51062493  0.64225907     0.14100
C354        C  0.21855683  0.49411320  0.63189639     0.01100
C355        C  0.22780999  0.47601362  0.66355835     0.16100
C356        C  0.21621087  0.47504291  0.70585226     0.25500
C357        C  0.19512437  0.49230026  0.71718136    -0.40900
C358        C  0.18518608  0.50965118  0.68447511     0.32500
C359        C  0.23260243  0.49718827  0.58913248     0.01100
F360        F  0.24892446  0.46017033  0.65415982    -0.13200
F361        F  0.16520552  0.52682846  0.69406555    -0.13700
C362        C  0.24908914  0.51922995  0.58236145     0.16100
C363        C  0.26137238  0.52325118  0.54122388     0.25500
C364        C  0.25712344  0.50534936  0.50572807    -0.40800
C365        C  0.24136413  0.48262481  0.51336882     0.32400
C366        C  0.22926694  0.47858861  0.55489769     0.14100
F367        F  0.25314833  0.53699130  0.61568632    -0.13200
F368        F  0.23679084  0.46482589  0.48033588    -0.13700
F369        F  0.27731763  0.54483620  0.53625476    -0.16000
F370        F  0.21360726  0.45696381  0.56134684    -0.14500
F371        F  0.18791173  0.52834164  0.61184993    -0.14500
F372        F  0.22615876  0.45767906  0.73607743    -0.15900
C373        C  0.25085317  0.48103800  0.16350693     0.14100
C374        C  0.26522758  0.49301682  0.12890918     0.01100
C375        C  0.28950466  0.50577807  0.13850907     0.16100
C376        C  0.29864809  0.50767648  0.18251983     0.25500
C377        C  0.28345334  0.49701088  0.21782553    -0.40900
C378        C  0.25980542  0.48296215  0.20747647     0.32500
C379        C  0.25284315  0.49566532  0.08442357     0.01100
F380        F  0.30383264  0.51728963  0.10531267    -0.13200
F381        F  0.24482946  0.47154601  0.23996930    -0.13700
C382        C  0.24401571  0.52061474  0.07076740     0.16100
C383        C  0.23067378  0.52369753  0.03039898     0.25500
C384        C  0.22588330  0.50174874  0.00216151    -0.40800
C385        C  0.23491186  0.47659942  0.01601995     0.32400
C386        C  0.24812604  0.47360809  0.05699073     0.14100
F387        F  0.24779880  0.54209709  0.09727943    -0.13200
F388        F  0.23098388  0.45488587  0.99016757    -0.13700
F389        F  0.22260108  0.54844660  0.01921625    -0.16000
F390        F  0.25646816  0.44923760  0.06980654    -0.14500
F391        F  0.22722884  0.46881038  0.15501467    -0.14500
F392        F  0.32166633  0.52107795  0.19058100    -0.15900
C393        C  0.10815176  0.69388430  0.75843897     0.14100
C394        C  0.09449408  0.67037016  0.76899688     0.01100
C395        C  0.06640536  0.67037565  0.76762249     0.16100
C396        C  0.05228969  0.69319887  0.75520448     0.25500
C397        C  0.06592609  0.71671866  0.74380637    -0.40900
C398        C  0.09413360  0.71674103  0.74617674     0.32500
C399        C  0.10944852  0.64594128  0.78178879     0.01100
F400        F  0.05253148  0.64824934  0.77885632    -0.13200
F401        F  0.10838205  0.73895736  0.73683550    -0.13700
C402        C  0.12744136  0.64625473  0.81772505     0.16100
C403        C  0.14051011  0.62307252  0.83115076     0.25500
C404        C  0.13579423  0.59871693  0.80917208    -0.40800
C405        C  0.11840987  0.59873429  0.77209493     0.32400
C406        C  0.10549543  0.62203414  0.75862384     0.14100
F407        F  0.13164353  0.66889052  0.84112596    -0.13200
F408        F  0.11340003  0.57611884  0.74910886    -0.13700
F409        F  0.15719618  0.62452196  0.86671024    -0.16000
F410        F  0.08903110  0.62122267  0.72272895    -0.14500
F411        F  0.13524092  0.69462140  0.75907275    -0.14500
F412        F  0.02524465  0.69200083  0.75362163    -0.15900
C413        C  0.12283676  0.60045273  0.32341798     0.14100
C414        C  0.14826021  0.60995550  0.31205935     0.01100
C415        C  0.15045839  0.63295662  0.28604018     0.16100
C416        C  0.12757549  0.64548513  0.26962750     0.25500
C417        C  0.10194549  0.63520248  0.27895826    -0.40900
C418        C  0.09992491  0.61292053  0.30727545     0.32500
C419        C  0.17241878  0.59515200  0.32567040     0.01100
F420        F  0.17486002  0.64266037  0.27491148    -0.13200
F421        F  0.07583030  0.60239623  0.31818268    -0.13700
C422        C  0.17642254  0.56912119  0.31060712     0.16100
C423        C  0.19944234  0.55517357  0.32252299     0.25500
C424        C  0.21900847  0.56703944  0.34977284    -0.40800
C425        C  0.21469784  0.59309796  0.36523723     0.32400
C426        C  0.19166281  0.60696803  0.35322217     0.14100
F427        F  0.15826158  0.55741370  0.28336006    -0.13200
F428        F  0.23251327  0.60509405  0.39276584    -0.13700
F429        F  0.20284253  0.53031753  0.30633684    -0.16000
F430        F  0.18792247  0.63185304  0.36909230    -0.14500
F431        F  0.12020866  0.57873608  0.34971389    -0.14500
F432        F  0.13065476  0.66733205  0.24379753    -0.15900
C433        C  0.05924995  0.54313912  0.98253386     0.14100
C434        C  0.06761405  0.54748640  0.02670638     0.01100
C435        C  0.09387322  0.54096498  0.03878515     0.16100
C436        C  0.11214959  0.53298693  0.00651150     0.25500
C437        C  0.10470651  0.53183901  0.96129960    -0.40900
C438        C  0.07769197  0.53540605  0.94993405     0.32500
C439        C  0.05160292  0.56395374  0.05756788     0.01100
F440        F  0.10272068  0.54500567  0.08102476    -0.13200
F441        F  0.06957686  0.53375765  0.90686239    -0.13700
C442        C  0.04762514  0.55623272  0.10215927     0.16100
C443        C  0.04025676  0.57497387  0.13431666     0.25500
C444        C  0.03674223  0.60160725  0.12208637    -0.40800
C445        C  0.03781350  0.60854987  0.07674960     0.32400
C446        C  0.04527328  0.58995656  0.04482784     0.14100
F447        F  0.05289285  0.53103570  0.11506891    -0.13200
F448        F  0.03328007  0.63386446  0.06362280    -0.13700
F449        F  0.03904331  0.56758321  0.17776263    -0.16000
F450        F  0.04899997  0.59817961  0.00218800    -0.14500
F451        F  0.03371791  0.54839564  0.97036268    -0.14500
F452        F  0.13768241  0.52810592  0.01923216    -0.15900
C453        C  0.98077332  0.72437478  0.41915724     0.14100
C454        C  0.99831638  0.71391157  0.45092468     0.01100
C455        C  0.01446412  0.69230923  0.43955159     0.16100
C456        C  0.01403564  0.68206314  0.39622124     0.25500
C457        C  0.99734860  0.69330375  0.36346947    -0.40900
C458        C  0.98019018  0.71415413  0.37585932     0.32500
C459        C  0.00142266  0.72697428  0.49464860     0.01100
F460        F  0.03172099  0.68207128  0.46980978    -0.13200
F461        F  0.96313571  0.72502813  0.34591259    -0.13700
C462        C  0.99290531  0.71447153  0.53390238     0.16100
C463        C  0.99660173  0.72682086  0.57523501     0.25500
C464        C  0.00928582  0.75171688  0.57791793    -0.40800
C465        C  0.01786219  0.76407598  0.53839575     0.32400
C466        C  0.01375732  0.75189718  0.49713690     0.14100
F467        F  0.98115048  0.69025452  0.53215068    -0.13200
F468        F  0.03013468  0.78801894  0.53961617    -0.13700
F469        F  0.98876521  0.71393312  0.61274287    -0.16000
F470        F  0.02241072  0.76414842  0.45952041    -0.14500
F471        F  0.96460965  0.74493306  0.42992018    -0.14500
F472        F  0.03114277  0.66220713  0.38580391    -0.15900
C473        C  0.02122241  0.72719664  0.99719673     0.14100
C474        C  0.00116823  0.74621702  0.99206463     0.01100
C475        C  0.98394990  0.75167164  0.02763225     0.16100
C476        C  0.98735765  0.73896931  0.06865756     0.25500
C477        C  0.00814693  0.72045972  0.07472671    -0.40900
C478        C  0.02469436  0.71435559  0.03802528     0.32500
C479        C  0.99844000  0.76035892  0.94938095     0.01100
F480        F  0.96419331  0.76977578  0.02285708    -0.13200
F481        F  0.04442886  0.69611525  0.04151521    -0.13700
C482        C  0.98037189  0.75124046  0.91730823     0.16100
C483        C  0.97979424  0.76271962  0.87499513     0.25500
C484        C  0.99755635  0.78349435  0.86383388    -0.40800
C485        C  0.01459580  0.79357299  0.89720232     0.32400
C486        C  0.01506325  0.78197273  0.93957716     0.14100
F487        F  0.96402652  0.73045725  0.92644192    -0.13200
F488        F  0.03185522  0.81363935  0.88829210    -0.13700
F489        F  0.96230353  0.75288859  0.84460105    -0.16000
F490        F  0.03241528  0.79121521  0.97067623    -0.14500
F491        F  0.03760394  0.72121962  0.96257762    -0.14500
F492        F  0.97080270  0.74554422  0.10270788    -0.15900
C493        C  0.37288811  0.69723703  0.26190186     0.14100
C494        C  0.38641786  0.67330352  0.26808633     0.01100
C495        C  0.41385455  0.67196086  0.25907190     0.16100
C496        C  0.42761672  0.69425851  0.24359030     0.25500
C497        C  0.41406135  0.71834579  0.23661035    -0.40900
C498        C  0.38647661  0.71953472  0.24623035     0.32500
C499        C  0.37180120  0.64966246  0.28366659     0.01100
F500        F  0.42737051  0.64905533  0.26575806    -0.13200
F501        F  0.37254700  0.74234036  0.24108516    -0.13700
C502        C  0.36844171  0.62783699  0.25533710     0.16100
C503        C  0.35486897  0.60526519  0.27010085     0.25500
C504        C  0.34451171  0.60405218  0.31379282    -0.40800
C505        C  0.34762396  0.62635793  0.34184577     0.32400
C506        C  0.36110202  0.64889828  0.32679855     0.14100
F507        F  0.37825780  0.62847922  0.21317116    -0.13200
F508        F  0.33846408  0.62620632  0.38444928    -0.13700
F509        F  0.35203233  0.58460654  0.24154826    -0.16000
F510        F  0.36440931  0.66976292  0.35483512    -0.14500
F511        F  0.34634185  0.69890147  0.27054668    -0.14500
F512        F  0.45412355  0.69206636  0.23500117    -0.15900
C513        C  0.35728882  0.59736030  0.82495644     0.14100
C514        C  0.33319871  0.59868437  0.80101830     0.01100
C515        C  0.33201284  0.61493817  0.76309182     0.16100
C516        C  0.35427412  0.62955523  0.74927383     0.25500
C517        C  0.37871439  0.62804351  0.77262596    -0.40900
C518        C  0.37980140  0.61180749  0.81094931     0.32500
C519        C  0.30889990  0.58399797  0.81595042     0.01100
F520        F  0.30929396  0.61619363  0.73852975    -0.13200
F521        F  0.40264137  0.60977146  0.83500135    -0.13700
C522        C  0.28508298  0.59782975  0.82361923     0.16100
C523        C  0.26170144  0.58444669  0.83547752     0.25500
C524        C  0.26143479  0.55664458  0.84086769    -0.40800
C525        C  0.28548752  0.54275155  0.83354347     0.32400
C526        C  0.30891679  0.55630243  0.82114626     0.14100
F527        F  0.28446856  0.62460654  0.81999892    -0.13200
F528        F  0.28650629  0.51607230  0.83850131    -0.13700
F529        F  0.23924715  0.59901596  0.84135784    -0.16000
F530        F  0.33149858  0.54226449  0.81330025    -0.14500
F531        F  0.35894389  0.58233687  0.86234268    -0.14500
F532        F  0.35188958  0.64459695  0.71201938    -0.15900
C533        C  0.42190512  0.54519454  0.47936373     0.14100
C534        C  0.41495754  0.54799894  0.52450024     0.01100
C535        C  0.38911578  0.54093193  0.53834518     0.16100
C536        C  0.36966108  0.53452856  0.50695391     0.25500
C537        C  0.37564350  0.53535336  0.46108673    -0.40900
C538        C  0.40235465  0.53901515  0.44773811     0.32500
C539        C  0.43137525  0.56461858  0.55443392     0.01100
F540        F  0.38178447  0.54320427  0.58176150    -0.13200
F541        F  0.40914725  0.53913609  0.40393927    -0.13700
C542        C  0.43583038  0.59112295  0.54232567     0.16100
C543        C  0.44320906  0.60966373  0.57430333     0.25500
C544        C  0.44584085  0.60219798  0.61923389    -0.40800
C545        C  0.44450274  0.57516133  0.63046014     0.32400
C546        C  0.43728754  0.55645431  0.59811793     0.14100
F547        F  0.43010180  0.59977180  0.50056907    -0.13200
F548        F  0.44772316  0.56712340  0.67327982    -0.13700
F549        F  0.44588384  0.63535941  0.56173155    -0.16000
F550        F  0.43395290  0.53076529  0.61018626    -0.14500
F551        F  0.44703612  0.55101772  0.46548030    -0.14500
F552        F  0.34449006  0.52934977  0.52143748    -0.15900
C553        C  0.46604923  0.78476512  0.43879661     0.14100
C554        C  0.47925440  0.76103306  0.44905479     0.01100
C555        C  0.49368693  0.74803127  0.41556304     0.16100
C556        C  0.49406931  0.75796082  0.37209522     0.25500
C557        C  0.47981584  0.78116304  0.36101094    -0.40900
C558        C  0.46630747  0.79476745  0.39527934     0.32500
C559        C  0.47614194  0.74865072  0.49355326     0.01100
F560        F  0.50636811  0.72491134  0.42443396    -0.13200
F561        F  0.45235321  0.81715607  0.38652630    -0.13700
C562        C  0.45063273  0.74146982  0.50860599     0.16100
C563        C  0.44731015  0.72892169  0.54967391     0.25500
C564        C  0.46954774  0.72311667  0.57687530    -0.40800
C565        C  0.49519444  0.73039753  0.56162101     0.32400
C566        C  0.49841860  0.74298310  0.52030462     0.14100
F567        F  0.42881856  0.74619153  0.48299977    -0.13200
F568        F  0.51723113  0.72520872  0.58638532    -0.13700
F569        F  0.42210236  0.72285391  0.56287573    -0.16000
F570        F  0.52330001  0.74989280  0.50657083    -0.14500
F571        F  0.45235472  0.79797278  0.47086129    -0.14500
F572        F  0.50797534  0.74436621  0.34073665    -0.15900
C573        C  0.46547515  0.69731306  0.93625665     0.14100
C574        C  0.48516509  0.71603546  0.94726098     0.01100
C575        C  0.50539744  0.72192699  0.91654932     0.16100
C576        C  0.50504993  0.71035949  0.87423712     0.25500
C577        C  0.48454819  0.69256682  0.86227658    -0.40900
C578        C  0.46523659  0.68550693  0.89414984     0.32500
C579        C  0.48301690  0.73097055  0.98927112     0.01100
F580        F  0.52461280  0.73994081  0.92670343    -0.13200
F581        F  0.44502642  0.66869644  0.88353857    -0.13700
C582        C  0.50115814  0.72690462  0.02412601     0.16100
C583        C  0.49723380  0.73926211  0.06537809     0.25500
C584        C  0.47503403  0.75593192  0.07220732    -0.40800
C585        C  0.45792241  0.76118406  0.03593939     0.32400
C586        C  0.46186762  0.74872116  0.99501804     0.14100
F587        F  0.52202341  0.71012763  0.01873298    -0.13200
F588        F  0.43708914  0.77814790  0.04001857    -0.13700
F589        F  0.51452838  0.73396682  0.09899585    -0.16000
F590        F  0.44476183  0.75368976  0.96095133    -0.14500
F591        F  0.44585446  0.69129943  0.96582660    -0.14500
F592        F  0.52431886  0.71712161  0.84446837    -0.15900
C593        C  0.15175527  0.84571295  0.77911963     0.14100
C594        C  0.14957907  0.86928927  0.80346377     0.01100
C595        C  0.12426852  0.87911202  0.81410818     0.16100
C596        C  0.10128679  0.86590117  0.79969863     0.25500
C597        C  0.10319276  0.84257996  0.77376036    -0.40900
C598        C  0.12884040  0.83246920  0.76427307     0.32500
C599        C  0.17374302  0.88400689  0.81698741     0.01100
F600        F  0.12183907  0.90176229  0.83812954    -0.13200
F601        F  0.13192374  0.81008898  0.73978658    -0.13700
C602        C  0.18106850  0.90729147  0.79460881     0.16100
C603        C  0.20399000  0.92127776  0.80726791     0.25500
C604        C  0.21995011  0.91222634  0.84281900    -0.40800
C605        C  0.21234603  0.88882570  0.86524529     0.32400
C606        C  0.18947882  0.87486868  0.85231743     0.14100
F607        F  0.16616832  0.91625412  0.76000855    -0.13200
F608        F  0.22668446  0.87966477  0.90035315    -0.13700
F609        F  0.21083638  0.94331909  0.78400492    -0.16000
F610        F  0.18241819  0.85258793  0.87473080    -0.14500
F611        F  0.17617377  0.83596437  0.76855085    -0.14500
F612        F  0.07724021  0.87656052  0.81015496    -0.15900
C613        C  0.41279747  0.79933001  0.77796331     0.14100
C614        C  0.38636529  0.80375520  0.76409294     0.01100
C615        C  0.37379391  0.78469628  0.73716110     0.16100
C616        C  0.38721357  0.76152650  0.72479448     0.25500
C617        C  0.41370556  0.75690738  0.73887520    -0.40900
C618        C  0.42635117  0.77628206  0.76540176     0.32500
C619        C  0.37199831  0.82818283  0.77800294     0.01100
F620        F  0.34863025  0.78879046  0.72192797    -0.13200
F621        F  0.45173973  0.77281245  0.78000713    -0.13700
C622        C  0.38293685  0.85323405  0.76907849     0.16100
C623        C  0.37046599  0.87620864  0.78458155     0.25500
C624        C  0.34646248  0.87477489  0.80934806    -0.40800
C625        C  0.33507548  0.84959614  0.81691915     0.32400
C626        C  0.34772795  0.82660725  0.80147105     0.14100
F627        F  0.40590861  0.85550383  0.74532432    -0.13200
F628        F  0.31184908  0.84703750  0.83984733    -0.13700
F629        F  0.38250106  0.89979913  0.77623973    -0.16000
F630        F  0.33669398  0.80268043  0.81082267    -0.14500
F631        F  0.42539195  0.81715643  0.80456653    -0.14500
F632        F  0.37435519  0.74394160  0.69808583    -0.15900
C633        C  0.38983143  0.93544986  0.03356095     0.14100
C634        C  0.41551196  0.92748122  0.02030057     0.01100
C635        C  0.42326452  0.93097800  0.97555353     0.16100
C636        C  0.40466417  0.93947963  0.94380328     0.25500
C637        C  0.37820083  0.94462504  0.95660896    -0.40900
C638        C  0.37142012  0.94404909  0.00200305     0.32500
C639        C  0.43120767  0.91051080  0.05083083     0.01100
F640        F  0.44813441  0.92401862  0.96202473    -0.13200
F641        F  0.34621068  0.94982071  0.01537864    -0.13700
C642        C  0.43627555  0.88418542  0.03838769     0.16100
C643        C  0.44329302  0.86550619  0.07040390     0.25500
C644        C  0.44482540  0.87259642  0.11576672    -0.40800
C645        C  0.44267801  0.89948333  0.12750330     0.32400
C646        C  0.43604937  0.91833467  0.09512369     0.14100
F647        F  0.43170354  0.87580994  0.99604704    -0.13200
F648        F  0.44461015  0.90721841  0.17070794    -0.13700
F649        F  0.44681641  0.84002147  0.05725389    -0.16000
F650        F  0.43227249  0.94387452  0.10762543    -0.14500
F651        F  0.38148435  0.93207910  0.07625339    -0.14500
F652        F  0.41172921  0.93991270  0.90012010    -0.15900
C653        C  0.11119594  0.85216366  0.24723437     0.14100
C654        C  0.10822711  0.83004687  0.27514566     0.01100
C655        C  0.11891615  0.83083942  0.31825272     0.16100
C656        C  0.13186989  0.85358368  0.33380920     0.25500
C657        C  0.13448511  0.87619674  0.30641147    -0.40900
C658        C  0.12422142  0.87505644  0.26264602     0.32500
C659        C  0.09362121  0.80614368  0.25999549     0.01100
F660        F  0.11613046  0.80971185  0.34582975    -0.13200
F661        F  0.12679950  0.89602523  0.23469556    -0.13700
C662        C  0.10765167  0.78340615  0.24734945     0.16100
C663        C  0.09396094  0.76026251  0.23542685     0.25500
C664        C  0.06571272  0.75926852  0.23620940    -0.40800
C665        C  0.05177157  0.78234394  0.24895031     0.32400
C666        C  0.06563200  0.80548975  0.26062971     0.14100
F667        F  0.13474869  0.78361318  0.24672255    -0.13200
F668        F  0.02469576  0.78269340  0.25007156    -0.13700
F669        F  0.10857943  0.73879472  0.22358028    -0.16000
F670        F  0.05171249  0.82722141  0.27339805    -0.14500
F671        F  0.10142857  0.85155892  0.20505904    -0.14500
F672        F  0.14087180  0.85370302  0.37648464    -0.15900
C673        C  0.09282415  0.93708617  0.53660704     0.14100
C674        C  0.06741072  0.92804282  0.52395693     0.01100
C675        C  0.05959985  0.93014908  0.47908228     0.16100
C676        C  0.07809164  0.93789758  0.44656672     0.25500
C677        C  0.10462531  0.94352312  0.45869219    -0.40900
C678        C  0.11131332  0.94472450  0.50421712     0.32500
C679        C  0.05291079  0.90998576  0.55436579     0.01100
F680        F  0.03490971  0.92204935  0.46628685    -0.13200
F681        F  0.13639744  0.95144139  0.51718194    -0.13700
C682        C  0.04428211  0.91810626  0.59682767     0.16100
C683        C  0.03674425  0.89921491  0.62885900     0.25500
C684        C  0.03823062  0.87198863  0.61885256    -0.40800
C685        C  0.04486306  0.86427853  0.57512291     0.32400
C686        C  0.05216052  0.88300723  0.54340856     0.14100
F687        F  0.04454140  0.94415152  0.60791804    -0.13200
F688        F  0.04576636  0.83834528  0.56350532    -0.13700
F689        F  0.02999762  0.90747583  0.67040129    -0.16000
F690        F  0.06092104  0.87448784  0.50302992    -0.14500
F691        F  0.10082934  0.93553767  0.57975613    -0.14500
F692        F  0.07081031  0.93705587  0.40301522    -0.15900
C693        C  0.20226700  0.96066347  0.14216312     0.14100
C694        C  0.21831482  0.98199472  0.12855623     0.01100
C695        C  0.22217625  0.00352104  0.15737777     0.16100
C696        C  0.21108442  0.00314941  0.20021313     0.25500
C697        C  0.19564219  0.98139240  0.21443763    -0.40900
C698        C  0.19082719  0.96043273  0.18467992     0.32500
C699        C  0.23270354  0.98054050  0.08572559     0.01100
F700        F  0.23757515  0.02433845  0.14465152    -0.13200
F701        F  0.17667594  0.93886335  0.19789032    -0.13700
C702        C  0.22246889  0.99273984  0.04747276     0.16100
C703        C  0.23494034  0.98909253  0.00612001     0.25500
C704        C  0.25787324  0.97303612  0.00245918    -0.40800
C705        C  0.26853114  0.96167353  0.04149473     0.32400
C706        C  0.25605031  0.96544540  0.08265622     0.14100
F707        F  0.19982600  0.00735749  0.04995331    -0.13200
F708        F  0.29086186  0.94656790  0.03989284    -0.13700
F709        F  0.22371632  0.00016221  0.96944860    -0.16000
F710        F  0.26643525  0.95386356  0.11958391    -0.14500
F711        F  0.19859754  0.93956548  0.11479276    -0.14500
F712        F  0.21587362  0.02376474  0.22816711    -0.15900
C713        C  0.26194137  0.98795791  0.54641832     0.14100
C714        C  0.25222650  0.97376463  0.58317268     0.01100
C715        C  0.22932341  0.95805286  0.57871700     0.16100
C716        C  0.21642667  0.95611828  0.53769721     0.25500
C717        C  0.22628366  0.96991076  0.50029856    -0.40900
C718        C  0.24905774  0.98607320  0.50513921     0.32500
C719        C  0.26566363  0.97528377  0.62662225     0.01100
F720        F  0.21952151  0.94449409  0.61423429    -0.13200
F721        F  0.25958429  0.99900742  0.46956722    -0.13700
C722        C  0.26064181  0.99668723  0.65504439     0.16100
C723        C  0.27071678  0.99670133  0.69841957     0.25500
C724        C  0.28618565  0.97533102  0.71379261    -0.40800
C725        C  0.29196734  0.95432352  0.68453685     0.32400
C726        C  0.28159084  0.95424676  0.64132128     0.14100
F727        F  0.24506697  0.01704479  0.64127337    -0.13200
F728        F  0.30631609  0.93314401  0.69854492    -0.13700
F729        F  0.26503881  0.01744802  0.72556158    -0.16000
F730        F  0.28633141  0.93324923  0.61422687    -0.14500
F731        F  0.28428547  0.00303345  0.55032901    -0.14500
F732        F  0.19429039  0.94066153  0.53459138    -0.15900
C733        C  0.30452989  0.91189535  0.30358362     0.14100
C734        C  0.30584718  0.88439439  0.30925746     0.01100
C735        C  0.28440058  0.87094412  0.32879703     0.16100
C736        C  0.26180256  0.88475577  0.34276771     0.25500
C737        C  0.26010892  0.91249702  0.33711377    -0.40900
C738        C  0.28186919  0.92587295  0.31720540     0.32500
C739        C  0.32959256  0.86958068  0.29470655     0.01100
F740        F  0.28554355  0.84434600  0.33489524    -0.13200
F741        F  0.28132336  0.95244089  0.31058058    -0.13700
C742        C  0.35345513  0.87147458  0.31877599     0.16100
C743        C  0.37609373  0.85769302  0.30474042     0.25500
C744        C  0.37533140  0.84192296  0.26582516    -0.40800
C745        C  0.35094128  0.83962670  0.24249082     0.32400
C746        C  0.32833566  0.85332102  0.25693387     0.14100
F747        F  0.35481277  0.88677907  0.35591803    -0.13200
F748        F  0.34900302  0.82484029  0.20483359    -0.13700
F749        F  0.39881422  0.86023017  0.32903011    -0.16000
F750        F  0.30532495  0.85133086  0.23327029    -0.14500
F751        F  0.32511618  0.92515395  0.28428515    -0.14500
F752        F  0.24175861  0.87078561  0.36220393    -0.15900
C753        C  0.37554697  0.41115691  0.39144799     0.14100
C754        C  0.36808858  0.38979720  0.36418162     0.01100
C755        C  0.34377109  0.39095108  0.34082335     0.16100
C756        C  0.32783454  0.41373247  0.34293729     0.25500
C757        C  0.33632093  0.43580315  0.36775153    -0.40900
C758        C  0.35992454  0.43401218  0.39296820     0.32500
C759        C  0.38792549  0.36884266  0.35448474     0.01100
F760        F  0.33630802  0.37063753  0.31392649    -0.13200
F761        F  0.36863247  0.45505185  0.41718359    -0.13700
C762        C  0.39678553  0.35139873  0.38785065     0.16100
C763        C  0.41903658  0.33509420  0.38036969     0.25500
C764        C  0.43302537  0.33652937  0.33973183    -0.40800
C765        C  0.42302936  0.35287574  0.30559790     0.32400
C766        C  0.40073175  0.36880304  0.31290225     0.14100
F767        F  0.38456923  0.35102010  0.42822700    -0.13200
F768        F  0.43549746  0.35417904  0.26544673    -0.13700
F769        F  0.42796619  0.31938242  0.41383335    -0.16000
F770        F  0.39278031  0.38565250  0.28028657    -0.14500
F771        F  0.39915386  0.41076250  0.41364876    -0.14500
F772        F  0.30545923  0.41513040  0.31757278    -0.15900
C773        C  0.40947720  0.10533528  0.87778188     0.14100
C774        C  0.38574137  0.11214783  0.85583535     0.01100
C775        C  0.38485586  0.13574243  0.83086263     0.16100
C776        C  0.40778588  0.15165668  0.82643846     0.25500
C777        C  0.43188986  0.14386126  0.84636522    -0.40900
C778        C  0.43227805  0.12096682  0.87302730     0.32500
C779        C  0.36374311  0.09244019  0.85414848     0.01100
F780        F  0.36216626  0.14265521  0.80915512    -0.13200
F781        F  0.45528225  0.11298246  0.89277924    -0.13700
C782        C  0.35168825  0.08311319  0.89358529     0.16100
C783        C  0.33578347  0.06018750  0.89296888     0.25500
C784        C  0.33210949  0.04617337  0.85300413    -0.40800
C785        C  0.34263982  0.05655240  0.81321572     0.32400
C786        C  0.35821655  0.07952049  0.81372800     0.14100
F787        F  0.35673311  0.09528140  0.93304412    -0.13200
F788        F  0.33904614  0.04351293  0.77406421    -0.13700
F789        F  0.32597763  0.05045761  0.93184418    -0.16000
F790        F  0.36988753  0.08775376  0.77528582    -0.14500
F791        F  0.41120283  0.08233852  0.90100450    -0.14500
F792        F  0.40698009  0.17343332  0.80002460    -0.15900
C793        C  0.51882002  0.28234304  0.11456540     0.14100
C794        C  0.49722781  0.26661622  0.10033042     0.01100
C795        C  0.47513108  0.26349981  0.12871972     0.16100
C796        C  0.47534877  0.27453706  0.17159945     0.25500
C797        C  0.49768993  0.28893879  0.18691132    -0.40900
C798        C  0.51908996  0.29336904  0.15735185     0.32500
C799        C  0.49904686  0.25164630  0.05774150     0.01100
F800        F  0.45393247  0.24855540  0.11587740    -0.13200
F801        F  0.54109880  0.30696027  0.17069894    -0.13700
C802        C  0.52041775  0.23419959  0.05101378     0.16100
C803        C  0.52331971  0.22072448  0.01070160     0.25500
C804        C  0.50484252  0.22431241  0.97568026    -0.40800
C805        C  0.48269201  0.24095018  0.98322175     0.32400
C806        C  0.47988307  0.25451239  0.02385382     0.14100
F807        F  0.53862652  0.23011181  0.08379565    -0.13200
F808        F  0.46415409  0.24481689  0.95092312    -0.13700
F809        F  0.54448520  0.20421250  0.00615990    -0.16000
F810        F  0.45892190  0.27114004  0.02950088    -0.14500
F811        F  0.54015278  0.28629599  0.08741176    -0.14500
F812        F  0.45390603  0.27061895  0.19849916    -0.15900
C813        C  0.51672117  0.19369159  0.61208732     0.14100
C814        C  0.50036608  0.21506886  0.60010669     0.01100
C815        C  0.48234115  0.22526455  0.63138295     0.16100
C816        C  0.48134098  0.21501296  0.67465127     0.25500
C817        C  0.49846219  0.19428805  0.68762786    -0.40900
C818        C  0.51573386  0.18327968  0.65545243     0.32500
C819        C  0.50348091  0.22833063  0.55639183     0.01100
F820        F  0.46620641  0.24576052  0.62027212    -0.13200
F821        F  0.53277495  0.16351375  0.66657794    -0.13700
C822        C  0.48961867  0.21933314  0.51870410     0.16100
C823        C  0.49211188  0.23262151  0.47782014     0.25500
C824        C  0.50868405  0.25520803  0.47387707    -0.40800
C825        C  0.52233524  0.26418449  0.51223580     0.32400
C826        C  0.51971235  0.25087353  0.55290390     0.14100
F827        F  0.47372545  0.19759583  0.52151865    -0.13200
F828        F  0.53830638  0.28591250  0.51063408    -0.13700
F829        F  0.47884826  0.22285807  0.44193644    -0.16000
F830        F  0.53319180  0.25994098  0.58909417    -0.14500
F831        F  0.53442365  0.18365244  0.58232061    -0.14500
F832        F  0.46383466  0.22570177  0.70409481    -0.15900
C833        C  0.87166996  0.90412334  0.65611260     0.14100
C834        C  0.86577999  0.88284045  0.68463178     0.01100
C835        C  0.84191028  0.88346041  0.70945235     0.16100
C836        C  0.82517322  0.90574640  0.70802700     0.25500
C837        C  0.83231631  0.92792869  0.68236051    -0.40900
C838        C  0.85522636  0.92651351  0.65525634     0.32500
C839        C  0.88678323  0.86282720  0.69439946     0.01100
F840        F  0.83574116  0.86317836  0.73727989    -0.13200
F841        F  0.86259454  0.94760923  0.63000597    -0.13700
C842        C  0.89982812  0.86373868  0.73575631     0.16100
C843        C  0.92234761  0.84817800  0.74372768     0.25500
C844        C  0.93243178  0.83111157  0.71059709    -0.40800
C845        C  0.91848617  0.82898711  0.66999095     0.32400
C846        C  0.89597912  0.84495900  0.66178521     0.14100
F847        F  0.89175908  0.88107293  0.76760263    -0.13200
F848        F  0.92765996  0.81286313  0.63723954    -0.13700
F849        F  0.93495498  0.85053366  0.78360286    -0.16000
F850        F  0.88370447  0.84365270  0.62153554    -0.14500
F851        F  0.89463942  0.90425253  0.63208295    -0.14500
F852        F  0.80342459  0.90665953  0.73496233    -0.15900
C853        C  0.64864221  0.12502237  0.78653983     0.14100
C854        C  0.64644531  0.10277952  0.75867390     0.01100
C855        C  0.62118643  0.09500194  0.74329093     0.16100
C856        C  0.59836496  0.10889221  0.75619585     0.25500
C857        C  0.60033371  0.13094630  0.78496856    -0.40900
C858        C  0.62586021  0.13897879  0.79959752     0.32500
C859        C  0.67053930  0.08794590  0.74497149     0.01100
F860        F  0.61862671  0.07390976  0.71554548    -0.13200
F861        F  0.62887162  0.16022977  0.82686192    -0.13700
C862        C  0.67328348  0.06095591  0.75526905     0.16100
C863        C  0.69593924  0.04693391  0.74156557     0.25500
C864        C  0.71632860  0.05970620  0.71723646    -0.40800
C865        C  0.71338311  0.08688873  0.70719818     0.32400
C866        C  0.69076859  0.10074970  0.72092511     0.14100
F867        F  0.65415605  0.04826861  0.77924430    -0.13200
F868        F  0.73211144  0.10017253  0.68324214    -0.13700
F869        F  0.69800302  0.02099363  0.75274970    -0.16000
F870        F  0.68832632  0.12667402  0.70977073    -0.14500
F871        F  0.67286973  0.13286628  0.80200515    -0.14500
F872        F  0.57428914  0.10008201  0.74156887    -0.15900
C873        C  0.63383887  0.88898506  0.21983769     0.14100
C874        C  0.61128124  0.88625238  0.19234804     0.01100
C875        C  0.60526829  0.90617826  0.16136811     0.16100
C876        C  0.62044766  0.92935016  0.16012522     0.25500
C877        C  0.64203732  0.93275910  0.18938981    -0.40900
C878        C  0.64927591  0.91209083  0.21816464     0.32500
C879        C  0.59118575  0.86557873  0.20158286     0.01100
F880        F  0.58320308  0.90427405  0.13529119    -0.13200
F881        F  0.66960083  0.91533544  0.24759469    -0.13700
C882        C  0.57698160  0.86670405  0.24183986     0.16100
C883        C  0.55461823  0.85077080  0.24827438     0.25500
C884        C  0.54605743  0.83333993  0.21463589    -0.40800
C885        C  0.56108038  0.83104606  0.17528021     0.32400
C886        C  0.58347771  0.84728238  0.16864811     0.14100
F887        F  0.58352940  0.88475780  0.27359036    -0.13200
F888        F  0.55286982  0.81474230  0.14200371    -0.13700
F889        F  0.54046374  0.85330235  0.28667028    -0.16000
F890        F  0.59685708  0.84613209  0.12935592    -0.14500
F891        F  0.63969450  0.87010028  0.25045236    -0.14500
F892        F  0.61307569  0.94922199  0.13230398    -0.15900
C893        C  0.60861899  0.14442103  0.22153656     0.14100
C894        C  0.59849821  0.14637768  0.26493830     0.01100
C895        C  0.60261788  0.12553496  0.29506506     0.16100
C896        C  0.61677099  0.10299212  0.28203745     0.25500
C897        C  0.62725123  0.10099013  0.23856187    -0.40900
C898        C  0.62287407  0.12202083  0.20840788     0.32500
C899        C  0.58471936  0.17069813  0.27947530     0.01100
F900        F  0.59263788  0.12695245  0.33707229    -0.13200
F901        F  0.63174896  0.12074905  0.16568953    -0.13700
C902        C  0.56046426  0.17839259  0.26006163     0.16100
C903        C  0.54766792  0.20155421  0.27411116     0.25500
C904        C  0.55905770  0.21752173  0.30778599    -0.40800
C905        C  0.58358974  0.20964365  0.32676134     0.32400
C906        C  0.59618999  0.18652346  0.31269071     0.14100
F907        F  0.54906049  0.16331863  0.22775403    -0.13200
F908        F  0.59552215  0.22414859  0.35926513    -0.13700
F909        F  0.52435060  0.20842058  0.25425735    -0.16000
F910        F  0.61997367  0.17975391  0.33105994    -0.14500
F911        F  0.60498915  0.16442411  0.19196253    -0.14500
F912        F  0.62022248  0.08322111  0.31208305    -0.15900
C913        C  0.54126549  0.05856069  0.95548196     0.14100
C914        C  0.54556334  0.06663341  0.99978715     0.01100
C915        C  0.53902099  0.09262895  0.01224649     0.16100
C916        C  0.53139713  0.11097908  0.98008579     0.25500
C917        C  0.53079955  0.10386797  0.93469379    -0.40900
C918        C  0.53405883  0.07709320  0.92299327     0.32500
C919        C  0.56230845  0.05060616  0.03010939     0.01100
F920        F  0.54289813  0.10117177  0.05468308    -0.13200
F921        F  0.53286568  0.06929360  0.87974419    -0.13700
C922        C  0.58830770  0.04401609  0.01653877     0.16100
C923        C  0.60711358  0.03571007  0.04761271     0.25500
C924        C  0.60054925  0.03444904  0.09318962    -0.40800
C925        C  0.57382375  0.03842579  0.10616757     0.32400
C926        C  0.55482063  0.04639834  0.07473462     0.14100
F927        F  0.59642630  0.04825664  0.97393880    -0.13200
F928        F  0.56653930  0.03690709  0.14968114    -0.13700
F929        F  0.63233433  0.03070134  0.03333774    -0.16000
F930        F  0.52961513  0.05191173  0.08844562    -0.14500
F931        F  0.54641096  0.03324902  0.94303252    -0.14500
F932        F  0.52659822  0.13628596  0.99307013    -0.15900
C933        C  0.75010938  0.97506729  0.89394548     0.14100
C934        C  0.75909399  0.99384075  0.92492573     0.01100
C935        C  0.77998000  0.01109964  0.91312387     0.16100
C936        C  0.79124922  0.01010977  0.87042395     0.25500
C937        C  0.78152925  0.99202902  0.83858088    -0.40900
C938        C  0.76114487  0.97417905  0.85114743     0.32500
C939        C  0.74526178  0.99691562  0.96818958     0.01100
F940        F  0.78883476  0.02952963  0.94259861    -0.13200
F941        F  0.75130912  0.95630861  0.82155039    -0.13700
C942        C  0.74658338  0.97717427  0.00103637     0.16100
C943        C  0.73423278  0.98088917  0.04255752     0.25500
C944        C  0.72019593  0.00444921  0.05173725    -0.40800
C945        C  0.71784443  0.02352291  0.01747720     0.32400
C946        C  0.73040116  0.01982980  0.97645428     0.14100
F947        F  0.76044519  0.95460081  0.99325561    -0.13200
F948        F  0.70337938  0.04594649  0.02338576    -0.13700
F949        F  0.73659323  0.96169497  0.07391895    -0.16000
F950        F  0.72792422  0.03868563  0.94448997    -0.14500
F951        F  0.72962867  0.95854115  0.90438938    -0.14500
F952        F  0.81037759  0.02802814  0.85938968    -0.15900
C953        C  0.71474996  0.98292702  0.50728256     0.14100
C954        C  0.72308449  0.99836238  0.47094123     0.01100
C955        C  0.74479914  0.01564030  0.47587303     0.16100
C956        C  0.75781012  0.01791128  0.51677118     0.25500
C957        C  0.74936234  0.00285472  0.55372055    -0.40900
C958        C  0.72778258  0.98515053  0.54849591     0.32500
C959        C  0.70939742  0.99686615  0.42748691     0.01100
F960        F  0.75338261  0.03039885  0.44084731    -0.13200
F961        F  0.71851610  0.97094905  0.58367588    -0.13700
C962        C  0.69344577  0.01801030  0.41310156     0.16100
C963        C  0.68368755  0.01861795  0.36943894     0.25500
C964        C  0.69019987  0.99830067  0.33936293    -0.40800
C965        C  0.70545628  0.97671008  0.35429504     0.32400
C966        C  0.71479438  0.97590448  0.39821554     0.14100
F967        F  0.68826208  0.03857072  0.44090704    -0.13200
F968        F  0.71168255  0.95663286  0.32608767    -0.13700
F969        F  0.66941963  0.03990731  0.35569385    -0.16000
F970        F  0.73022177  0.95534339  0.41158209    -0.14500
F971        F  0.69355149  0.96632214  0.50313492    -0.14500
F972        F  0.77874098  0.03491517  0.52014800    -0.15900
C973        C  0.09794643  0.40511732  0.88626175     0.14100
C974        C  0.10726850  0.38196216  0.86554917     0.01100
C975        C  0.13326624  0.38192633  0.84754335     0.16100
C976        C  0.14917272  0.40496801  0.84877853     0.25500
C977        C  0.13915925  0.42852175  0.86742350    -0.40900
C978        C  0.11361261  0.42808096  0.88704653     0.32500
C979        C  0.08840660  0.35940026  0.85854547     0.01100
F980        F  0.14286636  0.35985673  0.82739730    -0.13200
F981        F  0.10332544  0.45034033  0.90563994    -0.13700
C982        C  0.08033332  0.35267545  0.81509140     0.16100
C983        C  0.05810142  0.33629741  0.80821358     0.25500
C984        C  0.04365726  0.32602752  0.84457240    -0.40800
C985        C  0.05314052  0.33070298  0.88793722     0.32400
C986        C  0.07524532  0.34740437  0.89488690     0.14100
F987        F  0.09256644  0.36373850  0.77924449    -0.13200
F988        F  0.03963989  0.32103056  0.92364961    -0.13700
F989        F  0.04977507  0.33154477  0.76588054    -0.16000
F990        F  0.08289180  0.35308538  0.93721760    -0.14500
F991        F  0.07281053  0.40607163  0.90312839    -0.14500
F992        F  0.17351361  0.40476892  0.82892286    -0.15900
C993        C  0.87492216  0.18166094  0.82366719     0.14100
C994        C  0.88302253  0.16773974  0.78557825     0.01100
C995        C  0.90459894  0.17732710  0.76034638     0.16100
C996        C  0.91806447  0.20043247  0.77324665     0.25500
C997        C  0.91022160  0.21433050  0.81181975    -0.40900
C998        C  0.88833594  0.20471951  0.83671632     0.32500
C999        C  0.86911086  0.14303657  0.77251189     0.01100
F1000       F  0.91235769  0.16447727  0.72278338    -0.13200
F1001       F  0.88027941  0.21721361  0.87444654    -0.13700
C1002       C  0.84255580  0.14371922  0.75759396     0.16100
C1003       C  0.82963220  0.12040464  0.74428676     0.25500
C1004       C  0.84293546  0.09592183  0.74642583    -0.40800
C1005       C  0.86938141  0.09527854  0.76234557     0.32400
C1006       C  0.88237774  0.11865673  0.77495641     0.14100
F1007       F  0.82939513  0.16710564  0.75482280    -0.13200
F1008       F  0.88314850  0.07218434  0.76366222    -0.13700
F1009       F  0.80413640  0.12178034  0.72917749    -0.16000
F1010       F  0.90803215  0.11754368  0.78936351    -0.14500
F1011       F  0.85433768  0.17252929  0.84883314    -0.14500
F1012       F  0.93834913  0.20952080  0.74736922    -0.15900
C1013       C  0.08194111  0.12693174  0.39152233     0.14100
C1014       C  0.09226179  0.11001483  0.35845849     0.01100
C1015       C  0.08009148  0.10956343  0.31628635     0.16100
C1016       C  0.05735566  0.12467284  0.30787705     0.25500
C1017       C  0.04627480  0.14077280  0.34133128    -0.40900
C1018       C  0.05922341  0.14240744  0.38288899     0.32500
C1019       C  0.11344189  0.09032926  0.36846016     0.01100
F1020       F  0.08916634  0.09302295  0.28400644    -0.13200
F1021       F  0.04881359  0.15746308  0.41606611    -0.13700
C1022       C  0.10807265  0.06956727  0.39836202     0.16100
C1023       C  0.12428319  0.04705352  0.39893621     0.25500
C1024       C  0.14632620  0.04507628  0.37014421    -0.40800
C1025       C  0.15324357  0.06685487  0.34343486     0.32400
C1026       C  0.13682708  0.08930383  0.34244421     0.14100
F1027       F  0.08572169  0.06995192  0.42394887    -0.13200
F1028       F  0.17434740  0.06535219  0.31516536    -0.13700
F1029       F  0.11746353  0.02636237  0.42551853    -0.16000
F1030       F  0.14267506  0.10925749  0.31375103    -0.14500
F1031       F  0.09327867  0.12771114  0.43257995    -0.14500
F1032       F  0.04552551  0.12281911  0.26727861    -0.15900
C1033       C  0.85239492  0.09616706  0.23651943     0.14100
C1034       C  0.82753158  0.10656504  0.24867175     0.01100
C1035       C  0.82642728  0.12951894  0.27483013     0.16100
C1036       C  0.84991833  0.14133181  0.29035280     0.25500
C1037       C  0.87506441  0.13033633  0.27986589    -0.40900
C1038       C  0.87595598  0.10794898  0.25170952     0.32500
C1039       C  0.80276490  0.09267801  0.23579587     0.01100
F1040       F  0.80250457  0.13988409  0.28684051    -0.13200
F1041       F  0.89953628  0.09676427  0.23996327    -0.13700
C1042       C  0.79714833  0.06754689  0.25339192     0.16100
C1043       C  0.77384633  0.05413249  0.24123318     0.25500
C1044       C  0.75570928  0.06567371  0.21116045    -0.40800
C1045       C  0.76136374  0.09102791  0.19384525     0.32400
C1046       C  0.78469781  0.10439693  0.20615402     0.14100
F1047       F  0.81410458  0.05618918  0.28298652    -0.13200
F1048       F  0.74471998  0.10261505  0.16401383    -0.13700
F1049       F  0.76880219  0.03009485  0.25966483    -0.16000
F1050       F  0.78996659  0.12857102  0.18843087    -0.14500
F1051       F  0.85380601  0.07426723  0.21039196    -0.14500
F1052       F  0.84786779  0.16319315  0.31645098    -0.15900
C1053       C  0.91724689  0.04064234  0.57238609     0.14100
C1054       C  0.90952446  0.04742636  0.52886603     0.01100
C1055       C  0.88264553  0.04482391  0.51645365     0.16100
C1056       C  0.86351338  0.03730839  0.54763218     0.25500
C1057       C  0.87073997  0.03262104  0.59234532    -0.40900
C1058       C  0.89800990  0.03316115  0.60394070     0.32500
C1059       C  0.92772543  0.06184860  0.49858388     0.01100
F1060       F  0.87445385  0.05194658  0.47501533    -0.13200
F1061       F  0.90591631  0.02838933  0.64643798    -0.13700
C1062       C  0.93109443  0.05334281  0.45428322     0.16100
C1063       C  0.93960921  0.07119593  0.42151542     0.25500
C1064       C  0.94470760  0.09769500  0.43290182    -0.40800
C1065       C  0.94460351  0.10516741  0.47808001     0.32400
C1066       C  0.93617175  0.08737522  0.51070254     0.14100
F1067       F  0.92352012  0.02856106  0.44210390    -0.13200
F1068       F  0.95044320  0.13044516  0.49016537    -0.13700
F1069       F  0.93983116  0.06339569  0.37822318    -0.16000
F1070       F  0.93316395  0.09615253  0.55319769    -0.14500
F1071       F  0.94318411  0.04277772  0.58494779    -0.14500
F1072       F  0.83763203  0.03610180  0.53434437    -0.15900
C1073       C  0.95841733  0.18989675  0.11452540     0.14100
C1074       C  0.97151027  0.21371943  0.10438006     0.01100
C1075       C  0.98764379  0.22578867  0.13663591     0.16100
C1076       C  0.99009466  0.21469469  0.17907251     0.25500
C1077       C  0.97612687  0.19128485  0.19036910    -0.40900
C1078       C  0.96059568  0.17876933  0.15713898     0.32500
C1079       C  0.96785463  0.22652378  0.06056424     0.01100
F1080       F  0.00084218  0.24859560  0.12707389    -0.13200
F1081       F  0.94655357  0.15639040  0.16619865    -0.13700
C1082       C  0.95209756  0.24932053  0.05680602     0.16100
C1083       C  0.94889230  0.26181110  0.01551661     0.25500
C1084       C  0.96166062  0.25180857  0.97712542    -0.40800
C1085       C  0.97756485  0.22885863  0.98136643     0.32400
C1086       C  0.98051227  0.21636513  0.02265888     0.14100
F1087       F  0.93956153  0.25931310  0.09321482    -0.13200
F1088       F  0.98986847  0.21800915  0.94543904    -0.13700
F1089       F  0.93334869  0.28373159  0.01333980    -0.16000
F1090       F  0.99590808  0.19437402  0.02575168    -0.14500
F1091       F  0.94270890  0.17793861  0.08359717    -0.14500
F1092       F  0.00584064  0.22728025  0.20923610    -0.15900
C1093       C  0.96801110  0.28182069  0.61188517     0.14100
C1094       C  0.97869390  0.25657930  0.60400777     0.01100
C1095       C  0.99029773  0.24258676  0.63927470     0.16100
C1096       C  0.99052051  0.25323460  0.68214935     0.25500
C1097       C  0.97881072  0.27814784  0.69081361    -0.40900
C1098       C  0.96795069  0.29250191  0.65484632     0.32500
C1099       C  0.97564310  0.24382868  0.56002446     0.01100
F1100       F  0.00013034  0.21787196  0.63270612    -0.13200
F1101       F  0.95654908  0.31655536  0.66117734    -0.13700
C1102       C  0.99793428  0.23438727  0.53642865     0.16100
C1103       C  0.99457866  0.22151338  0.49548099     0.25500
C1104       C  0.96885481  0.21781453  0.47779860    -0.40800
C1105       C  0.94661901  0.22729386  0.50166880     0.32400
C1106       C  0.95000150  0.24007118  0.54237326     0.14100
F1107       F  0.02292655  0.23782019  0.55292873    -0.13200
F1108       F  0.92150818  0.22483613  0.48509370    -0.13700
F1109       F  0.01636657  0.21228636  0.47358158    -0.16000
F1110       F  0.92809220  0.24841782  0.56498823    -0.14500
F1111       F  0.95704600  0.29589442  0.57801082    -0.14500
F1112       F  0.00123134  0.23842781  0.71534604    -0.15900
C1113       C  0.84511205  0.58654249  0.19878036     0.14100
C1114       C  0.87048023  0.58718767  0.17864581     0.01100
C1115       C  0.87978310  0.56446656  0.15660774     0.16100
C1116       C  0.86519745  0.54081560  0.15848568     0.25500
C1117       C  0.84083897  0.53958443  0.18181411    -0.40900
C1118       C  0.83026701  0.56295483  0.20000814     0.32500
C1119       C  0.88941970  0.60909905  0.18847892     0.01100
F1120       F  0.90409755  0.56454940  0.13660089    -0.13200
F1121       F  0.80674652  0.56241027  0.22245285    -0.13700
C1122       C  0.89891033  0.61191049  0.23225966     0.16100
C1123       C  0.92036837  0.62870770  0.24154774     0.25500
C1124       C  0.93262923  0.64338974  0.20740329    -0.40800
C1125       C  0.92208676  0.64199949  0.16399310     0.32400
C1126       C  0.90074796  0.62472039  0.15447929     0.14100
F1127       F  0.88874485  0.59671860  0.26554516    -0.13200
F1128       F  0.93381069  0.65565423  0.13027057    -0.13700
F1129       F  0.93020097  0.62954885  0.28369307    -0.16000
F1130       F  0.89196389  0.62232397  0.11187779    -0.14500
F1131       F  0.83556820  0.60832928  0.21984226    -0.14500
F1132       F  0.87548801  0.51872910  0.13930326    -0.15900
C1133       C  0.65345667  0.34119966  0.27284289     0.14100
C1134       C  0.65287612  0.36585801  0.25119088     0.01100
C1135       C  0.62809246  0.37742707  0.24172295     0.16100
C1136       C  0.60435284  0.36518007  0.25505662     0.25500
C1137       C  0.60473319  0.34086414  0.27831482    -0.40900
C1138       C  0.62969173  0.32878658  0.28622463     0.32500
C1139       C  0.67796750  0.37990604  0.23904923     0.01100
F1140       F  0.62685924  0.40082230  0.21958910    -0.13200
F1141       F  0.63131074  0.30531617  0.30803450    -0.13700
C1142       C  0.69677444  0.36799043  0.21079785     0.16100
C1143       C  0.71990940  0.38166893  0.19810029     0.25500
C1144       C  0.72472162  0.40774003  0.21322971    -0.40800
C1145       C  0.70591707  0.41948112  0.24202452     0.32400
C1146       C  0.68288869  0.40567165  0.25485892     0.14100
F1147       F  0.69237022  0.34331492  0.19439531    -0.13200
F1148       F  0.70995392  0.44419191  0.25852150    -0.13700
F1149       F  0.73722646  0.36950954  0.16999270    -0.16000
F1150       F  0.66546337  0.41739433  0.28331338    -0.14500
F1151       F  0.67713176  0.32955929  0.28259687    -0.14500
F1152       F  0.58103555  0.37768298  0.24595041    -0.15900
C1153       C  0.87490727  0.34918020  0.30809900     0.14100
C1154       C  0.86825099  0.32484415  0.28837905     0.01100
C1155       C  0.84830149  0.32399346  0.25565533     0.16100
C1156       C  0.83643734  0.34731949  0.24067827     0.25500
C1157       C  0.84455384  0.37212688  0.25781483    -0.40900
C1158       C  0.86315541  0.37263321  0.29310674     0.32500
C1159       C  0.88314343  0.30057792  0.30000296     0.01100
F1160       F  0.84124774  0.30065194  0.23647891    -0.13200
F1161       F  0.87089378  0.39582997  0.31199853    -0.13700
C1162       C  0.86980010  0.27845757  0.31732041     0.16100
C1163       C  0.88382289  0.25533633  0.32717573     0.25500
C1164       C  0.91170745  0.25382294  0.31995131    -0.40800
C1165       C  0.92491793  0.27611835  0.30204914     0.32400
C1166       C  0.91073882  0.29919556  0.29220917     0.14100
F1167       F  0.84312849  0.27934945  0.32522561    -0.13200
F1168       F  0.95156876  0.27576595  0.29394131    -0.13700
F1169       F  0.86987624  0.23452483  0.34396065    -0.16000
F1170       F  0.92390434  0.32012929  0.27415503    -0.14500
F1171       F  0.89328671  0.35025431  0.34128850    -0.14500
F1172       F  0.81757068  0.34552151  0.20833240    -0.15900
C1173       C  0.89848204  0.44602977  0.02899592     0.14100
C1174       C  0.91606034  0.42443236  0.03110625     0.01100
C1175       C  0.92010282  0.41167423  0.07222641     0.16100
C1176       C  0.90410799  0.41805455  0.10895125     0.25500
C1177       C  0.88396549  0.43711559  0.10465356    -0.40900
C1178       C  0.88220905  0.45205178  0.06538921     0.32500
C1179       C  0.92337996  0.41045907  0.98953975     0.01100
F1180       F  0.93702151  0.39080942  0.07522685    -0.13200
F1181       F  0.86310069  0.47087267  0.06103892    -0.13700
C1182       C  0.94997303  0.40401545  0.97910056     0.16100
C1183       C  0.95550440  0.38614716  0.94440466     0.25500
C1184       C  0.93441179  0.37431359  0.92065136    -0.40800
C1185       C  0.90809664  0.38225128  0.92924935     0.32400
C1186       C  0.90262860  0.40006628  0.96328757     0.14100
F1187       F  0.97035108  0.41413768  0.00360298    -0.13200
F1188       F  0.88742379  0.37181474  0.90573524    -0.13700
F1189       F  0.98114537  0.37905904  0.93613809    -0.16000
F1190       F  0.87672493  0.40552687  0.97289117    -0.14500
F1191       F  0.89481523  0.45912328  0.98998148    -0.14500
F1192       F  0.90614458  0.40351323  0.14683123    -0.15900
C1193       C  0.63001482  0.58353600  0.66416777     0.14100
C1194       C  0.61477570  0.59100076  0.70166638     0.01100
C1195       C  0.61692906  0.57592270  0.74086446     0.16100
C1196       C  0.63256261  0.55310549  0.74179925     0.25500
C1197       C  0.64631434  0.54456255  0.70350669    -0.40900
C1198       C  0.64573688  0.56049866  0.66511401     0.32500
C1199       C  0.59404859  0.61209279  0.69895770     0.01100
F1200       F  0.60228818  0.58212536  0.77748709    -0.13200
F1201       F  0.65880139  0.55282532  0.62766026    -0.13700
C1202       C  0.57319803  0.60974444  0.66775810     0.16100
C1203       C  0.55048528  0.62568846  0.67117274     0.25500
C1204       C  0.54819470  0.64439444  0.70556128    -0.40800
C1205       C  0.56966782  0.64808298  0.73498670     0.32400
C1206       C  0.59249452  0.63213554  0.73160406     0.14100
F1207       F  0.57370979  0.59043429  0.63630183    -0.13200
F1208       F  0.56764039  0.66561336  0.76911763    -0.13700
F1209       F  0.52987821  0.62170821  0.64254545    -0.16000
F1210       F  0.61244166  0.63523815  0.76178383    -0.14500
F1211       F  0.62883526  0.59798815  0.62610693    -0.14500
F1212       F  0.63339314  0.53864332  0.77992552    -0.15900
C1213       C  0.56864408  0.30165604  0.78447783     0.14100
C1214       C  0.59579700  0.30368535  0.79523273     0.01100
C1215       C  0.60829010  0.28291736  0.81783294     0.16100
C1216       C  0.59386642  0.26018052  0.82933944     0.25500
C1217       C  0.56650768  0.25775593  0.81822831    -0.40900
C1218       C  0.55408100  0.27895481  0.79580971     0.32500
C1219       C  0.61132369  0.32696025  0.78059908     0.01100
F1220       F  0.63457421  0.28461121  0.82848260    -0.13200
F1221       F  0.52795635  0.27765722  0.78404134    -0.13700
C1222       C  0.61278578  0.34973278  0.80720596     0.16100
C1223       C  0.62553623  0.37255805  0.79126997     0.25500
C1224       C  0.63706469  0.37290905  0.74831790    -0.40800
C1225       C  0.63642442  0.34949408  0.72262809     0.32400
C1226       C  0.62363113  0.32680754  0.73869010     0.14100
F1227       F  0.60132199  0.35001220  0.84820926    -0.13200
F1228       F  0.64692400  0.34882865  0.68092405    -0.13700
F1229       F  0.62624129  0.39438110  0.81766645    -0.16000
F1230       F  0.62244309  0.30484939  0.71265728    -0.14500
F1231       F  0.55633203  0.32161139  0.76234522    -0.14500
F1232       F  0.60680882  0.24068227  0.85163941    -0.15900
C1233       C  0.56469279  0.41340130  0.57368390     0.14100
C1234       C  0.56715876  0.42713743  0.53320133     0.01100
C1235       C  0.58268501  0.45032460  0.53155871     0.16100
C1236       C  0.59767420  0.45810600  0.56875098     0.25500
C1237       C  0.59727778  0.44273029  0.60772744    -0.40900
C1238       C  0.57972964  0.42112291  0.61071511     0.32500
C1239       C  0.55957815  0.41333990  0.49167077     0.01100
F1240       F  0.58536150  0.46383538  0.49271126    -0.13200
F1241       F  0.57971427  0.40555644  0.64759562    -0.13700
C1242       C  0.53271847  0.40927374  0.47995077     0.16100
C1243       C  0.52603428  0.39134126  0.44589661     0.25500
C1244       C  0.54619177  0.37689841  0.42418892    -0.40800
C1245       C  0.57307065  0.38224793  0.43439413     0.32400
C1246       C  0.57967700  0.40036596  0.46761543     0.14100
F1247       F  0.51305624  0.42180537  0.50273095    -0.13200
F1248       F  0.59303784  0.36926821  0.41299179    -0.13700
F1249       F  0.49995495  0.38681005  0.43628074    -0.16000
F1250       F  0.60576045  0.40385539  0.47853182    -0.14500
F1251       F  0.55043732  0.39053378  0.57559083    -0.14500
F1252       F  0.61466252  0.47898479  0.56525952    -0.15900
C1253       C  0.80499456  0.40825287  0.73062630     0.14100
C1254       C  0.80648206  0.38120234  0.72023695     0.01100
C1255       C  0.78517740  0.36913977  0.69773923     0.16100
C1256       C  0.76238301  0.38367643  0.68676040     0.25500
C1257       C  0.76026557  0.41074324  0.69847124    -0.40900
C1258       C  0.78216468  0.42289292  0.72000412     0.32500
C1259       C  0.82964399  0.36533140  0.73517781     0.01100
F1260       F  0.78645532  0.34315305  0.68641238    -0.13200
F1261       F  0.78145935  0.44884073  0.73165688    -0.13700
C1262       C  0.82627490  0.34578737  0.76794668     0.16100
C1263       C  0.84837101  0.33248351  0.78551335     0.25500
C1264       C  0.87441115  0.33841825  0.77048227    -0.40800
C1265       C  0.87747175  0.35716909  0.73588334     0.32400
C1266       C  0.85531020  0.37052614  0.71863154     0.14100
F1267       F  0.80160811  0.34047591  0.78448805    -0.13200
F1268       F  0.90195450  0.36295784  0.71904630    -0.13700
F1269       F  0.84423403  0.31474063  0.81878084    -0.16000
F1270       F  0.85892979  0.38879696  0.68599960    -0.14500
F1271       F  0.82538713  0.42032373  0.75248893    -0.14500
F1272       F  0.74238108  0.37099280  0.66485670    -0.15900
C1273       C  0.73931139  0.48473668  0.88802188     0.14100
C1274       C  0.72418363  0.47640439  0.92462649     0.01100
C1275       C  0.69758407  0.46854175  0.91832863     0.16100
C1276       C  0.68636582  0.46833608  0.87558185     0.25500
C1277       C  0.70174186  0.47582446  0.83817599    -0.40900
C1278       C  0.72832086  0.48446403  0.84524401     0.32500
C1279       C  0.73710844  0.47302062  0.96839600     0.01100
F1280       F  0.68268368  0.46044013  0.95360487    -0.13200
F1281       F  0.74423322  0.49177172  0.81070935    -0.13700
C1282       C  0.74219433  0.49472179  0.99633280     0.16100
C1283       C  0.75455119  0.49099252  0.03778329     0.25500
C1284       C  0.76223900  0.46541980  0.05167234    -0.40800
C1285       C  0.75746199  0.44385076  0.02270028     0.32400
C1286       C  0.74499976  0.44769000  0.98167954     0.14100
F1287       F  0.73494554  0.51945280  0.98361116    -0.13200
F1288       F  0.76427264  0.41877783  0.03420052    -0.13700
F1289       F  0.75899226  0.51241258  0.06410785    -0.16000
F1290       F  0.74066174  0.42656255  0.95461560    -0.14500
F1291       F  0.76521712  0.49200479  0.89349214    -0.14500
F1292       F  0.66064149  0.46030773  0.87094880    -0.15900
C1293       C  0.75013146  0.49507668  0.50000620     0.14100
C1294       C  0.74725544  0.47614824  0.46620962     0.01100
C1295       C  0.72932201  0.45511474  0.47201411     0.16100
C1296       C  0.71497961  0.45249086  0.51171924     0.25500
C1297       C  0.71859913  0.47077584  0.54692885    -0.40900
C1298       C  0.73601808  0.49245676  0.54006233     0.32500
C1299       C  0.76243309  0.47847205  0.42422886     0.01100
F1300       F  0.72581607  0.43696266  0.43912116    -0.13200
F1301       F  0.74012963  0.51077223  0.57246275    -0.13700
C1302       C  0.78351241  0.46105643  0.41493150     0.16100
C1303       C  0.79587600  0.46133164  0.37305478     0.25500
C1304       C  0.78694570  0.47876784  0.33965723    -0.40800
C1305       C  0.76667032  0.49705411  0.35002795     0.32400
C1306       C  0.75459337  0.49691876  0.39200557     0.14100
F1307       F  0.79147358  0.44319680  0.44595822    -0.13200
F1308       F  0.75802427  0.51464156  0.31907537    -0.13700
F1309       F  0.81530781  0.44338347  0.36431515    -0.16000
F1310       F  0.73429912  0.51393255  0.40052781    -0.14500
F1311       F  0.76722933  0.51571704  0.49463778    -0.14500
F1312       F  0.69804365  0.43160188  0.51578996    -0.15900
loop_ 
_geom_bond_atom_site_label_1 
_geom_bond_atom_site_label_2 
_geom_bond_distance 
_geom_bond_site_symmetry_2 
_ccdc_geom_bond_type 
Fe1          O17   2.063       .  S
Fe1           O7   2.087       .  S
Fe1          O14   2.091       .  S
Fe1           O6   2.065       .  S
Fe1          O12   1.978       .  S
Fe2           O5   2.061       .  S
Fe2           O9   2.074       .  S
Fe2          O13   2.052       .  S
Fe2          O18   2.086       .  S
Fe2          O12   1.979       .  S
Fe3          O21   2.059       .  S
Fe3           O8   2.054       .  S
Fe3          O15   2.057       .  S
Fe3           O4   2.055       .  S
Fe3          O12   1.970       .  S
O4           C11   1.265       .  A
O5           C19   1.264       .  A
O6           C11   1.267       .  A
O7           C10   1.276       .  A
O8           C20   1.271       .  A
O9           C22   1.273       .  A
C10          O15   1.270       .  A
C10        C1257   1.495       .  S
C11        C1297   1.492       .  S
O13          C16   1.266       .  A
O14          C16   1.272       .  A
C16        C1197   1.484       .  S
O17          C22   1.270       .  A
O18          C20   1.275       .  A
C19          O21   1.264       .  A
C19        C1224   1.488       .  S
C20        C1237   1.467       .  S
C22        C1277   1.492       .  S
Fe23         O39   2.093       .  S
Fe23         O29   2.050       .  S
Fe23         O36   2.067       .  S
Fe23         O28   2.087       .  S
Fe23         O34   1.977       .  S
Fe24         O27   2.056       .  S
Fe24         O31   2.058       .  S
Fe24         O35   2.053       .  S
Fe24         O40   2.054       .  S
Fe24         O34   1.963       .  S
Fe25         O43   2.065       .  S
Fe25         O30   2.083       .  S
Fe25         O37   2.077       .  S
Fe25         O26   2.060       .  S
Fe25         O34   1.978       .  S
O26          C33   1.269       .  A
O27          C41   1.265       .  A
O28          C33   1.273       .  A
O29          C32   1.266       .  A
O30          C42   1.272       .  A
O31          C44   1.271       .  A
C32          O37   1.270       .  A
C32        C1304   1.481       .  S
C33        C1117   1.481       .  S
O35          C38   1.264       .  A
O36          C38   1.266       .  A
C38        C1284   1.489       .  S
O39          C44   1.277       .  A
O40          C42   1.270       .  A
C41          O43   1.266       .  A
C41        C1157   1.489       .  S
C42        C1177   1.467       .  S
C44        C1144   1.492       .  S
Fe45         O61   2.067       .  S
Fe45         O51   2.085       .  S
Fe45         O58   2.085   1_655  S
Fe45         O50   2.065       .  S
Fe45         O56   1.976       .  S
Fe46         O49   2.060       .  S
Fe46         O53   2.070       .  S
Fe46         O57   2.056   1_655  S
Fe46         O62   2.081       .  S
Fe46         O56   1.978       .  S
Fe47         O65   2.051       .  S
Fe47         O52   2.050       .  S
Fe47         O59   2.048       .  S
Fe47         O48   2.041       .  S
Fe47         O56   1.966       .  S
O48          C55   1.263       .  A
O49          C63   1.264       .  A
O50          C55   1.266       .  A
O51          C54   1.275       .  A
O52          C64   1.271       .  A
O53          C66   1.272       .  A
C54          O59   1.268       .  A
C54        C1164   1.491       .  S
C55        C1104   1.475       .  S
O57          C60   1.266       .  A
O58          C60   1.270       .  A
C60        C1017   1.483       .  S
O61          C66   1.271       .  A
O62          C64   1.275       .  A
C63          O65   1.262       .  A
C63        C1037   1.489       .  S
C64        C1064   1.473       .  S
C66        C1077   1.491       .  S
Fe67         O83   2.077       .  S
Fe67         O73   2.068       .  S
Fe67         O80   2.064       .  S
Fe67         O72   2.085   1_655  S
Fe67         O78   1.960       .  S
Fe68         O71   2.068       .  S
Fe68         O75   2.069       .  S
Fe68         O79   2.070       .  S
Fe68         O84   2.068       .  S
Fe68         O78   1.958       .  S
Fe69         O87   2.069       .  S
Fe69         O74   2.072       .  S
Fe69         O81   2.059       .  S
Fe69         O70   2.071   1_655  S
Fe69         O78   1.963       .  S
O70          C77   1.268       .  A
O71          C85   1.267       .  A
O72          C77   1.271       .  A
O73          C76   1.271       .  A
O74          C86   1.273       .  A
O75          C88   1.272       .  A
C76          O81   1.271       .  A
C76        C1097   1.486       .  S
C77         C984   1.483       .  S
O79          C82   1.270       .  A
O80          C82   1.268       .  A
C82        C1084   1.491       .  S
O83          C88   1.274       .  A
O84          C86   1.275       .  A
C85          O87   1.266       .  A
C85        C1264   1.493       .  S
C86        C1184   1.472       .  S
C88         C997   1.487       .  S
Fe89        O105   2.086   1_565  S
Fe89         O95   2.059       .  S
Fe89        O102   2.075       .  S
Fe89         O94   2.073       .  S
Fe89        O100   1.972   1_565  S
Fe90         O93   2.057       .  S
Fe90         O97   2.051       .  S
Fe90        O101   2.052       .  S
Fe90        O106   2.044       .  S
Fe90        O100   1.957       .  S
Fe91        O109   2.059       .  S
Fe91         O96   2.086       .  S
Fe91        O103   2.078       .  S
Fe91         O92   2.045   1_545  S
Fe91        O100   1.965       .  S
O92          C99   1.265       .  A
O93         C107   1.264       .  A
O94          C99   1.268       .  A
O95          C98   1.270   1_565  A
O96         C108   1.276       .  A
O97         C110   1.271       .  A
C98         O103   1.273       .  A
C98         C964   1.475   1_545  S
C99         C877   1.467       .  S
O101        C104   1.264       .  A
O102        C104   1.268   1_565  A
C104        C944   1.491       .  S
O105        C110   1.276       .  A
O106        C108   1.271       .  A
C107        O109   1.264       .  A
C107        C897   1.486       .  S
C108        C924   1.480       .  S
C110       C1044   1.481       .  S
Fe111       O127   2.048       .  S
Fe111       O117   2.100   1_565  S
Fe111       O124   2.101       .  S
Fe111       O116   2.066       .  S
Fe111       O122   1.980   1_565  S
Fe112       O115   2.059       .  S
Fe112       O119   2.089       .  S
Fe112       O123   2.048   1_545  S
Fe112       O128   2.090       .  S
Fe112       O122   1.971       .  S
Fe113       O131   2.062       .  S
Fe113       O118   2.043       .  S
Fe113       O125   2.041       .  S
Fe113       O114   2.057       .  S
Fe113       O122   1.962       .  S
O114        C121   1.265       .  A
O115        C129   1.264       .  A
O116        C121   1.267   1_565  A
O117        C120   1.278       .  A
O118        C130   1.271       .  A
O119        C132   1.275   1_545  A
C120        O125   1.268       .  A
C120        C864   1.490       .  S
C121        C957   1.482       .  S
O123        C126   1.264       .  A
O124        C126   1.274       .  A
C126        C837   1.484       .  S
O127        C132   1.267       .  A
O128        C130   1.277       .  A
C129        O131   1.264       .  A
C129       C1004   1.482       .  S
C130       C1057   1.483       .  S
C132        C937   1.484       .  S
Fe133       O149   2.097       .  S
Fe133       O139   2.063       .  S
Fe133       O146   2.075       .  S
Fe133       O138   2.095       .  S
Fe133       O144   1.976       .  S
Fe134       O137   2.068       .  S
Fe134       O141   2.049       .  S
Fe134       O145   2.057       .  S
Fe134       O150   2.042       .  S
Fe134       O144   1.961       .  S
Fe135       O153   2.052       .  S
Fe135       O140   2.090       .  S
Fe135       O147   2.084       .  S
Fe135       O136   2.038       .  S
Fe135       O144   1.972       .  S
O136        C143   1.263       .  A
O137        C151   1.266       .  A
O138        C143   1.272       .  A
O139        C142   1.270       .  A
O140        C152   1.276       .  A
O141        C154   1.271       .  A
C142        O147   1.273       .  A
C142        C817   1.489       .  S
C143        C777   1.478       .  S
O145        C148   1.265       .  A
O146        C148   1.267       .  A
C148        C804   1.494       .  S
O149        C154   1.279       .  A
O150        C152   1.270       .  A
C151        O153   1.263       .  A
C151        C857   1.488       .  S
C152        C917   1.480       .  S
C154       C1217   1.492       .  S
Fe155       O171   2.087       .  S
Fe155       O161   2.071       .  S
Fe155       O168   2.081       .  S
Fe155       O160   2.085       .  S
Fe155       O166   1.968       .  S
Fe156       O159   2.066       .  S
Fe156       O163   2.065       .  S
Fe156       O167   2.064       .  S
Fe156       O172   2.076       .  S
Fe156       O166   1.960       .  S
Fe157       O175   2.066       .  S
Fe157       O162   2.069       .  S
Fe157       O169   2.061       .  S
Fe157       O158   2.062       .  S
Fe157       O166   1.956       .  S
O158        C165   1.269       .  A
O159        C173   1.267       .  A
O160        C165   1.273       .  A
O161        C164   1.272       .  A
O162        C174   1.274       .  A
O163        C176   1.272       .  A
C164        O169   1.270       .  A
C164        C904   1.489       .  S
C165        C824   1.495       .  S
O167        C170   1.268       .  A
O168        C170   1.270       .  A
C170        C764   1.484       .  S
O171        C176   1.275       .  A
O172        C174   1.274       .  A
C173        O175   1.266       .  A
C173       C1137   1.495       .  S
C174       C1244   1.477       .  S
C176        C797   1.487       .  S
Fe177       O193   2.087       .  S
Fe177       O183   2.054       .  S
Fe177       O190   2.065       .  S
Fe177       O182   2.084   1_565  S
Fe177       O188   1.984       .  S
Fe178       O181   2.059       .  S
Fe178       O185   2.052       .  S
Fe178       O189   2.046       .  S
Fe178       O194   2.052       .  S
Fe178       O188   1.964       .  S
Fe179       O197   2.073       .  S
Fe179       O184   2.085       .  S
Fe179       O191   2.078       .  S
Fe179       O180   2.055   1_565  S
Fe179       O188   1.974       .  S
O180        C187   1.267       .  A
O181        C195   1.264       .  A
O182        C187   1.271       .  A
O183        C186   1.268       .  A
O184        C196   1.275       .  A
O185        C198   1.271       .  A
C186        O191   1.273       .  A
C186        C697   1.476       .  S
C187       C1024   1.476       .  S
O189        C192   1.262       .  A
O190        C192   1.266       .  A
C192        C717   1.478       .  S
O193        C198   1.276       .  A
O194        C196   1.271       .  A
C195        O197   1.266       .  A
C195        C657   1.493       .  S
C196        C677   1.479       .  S
C198        C737   1.491       .  S
Fe199       O215   2.068       .  S
Fe199       O205   2.075       .  S
Fe199       O212   2.079   1_565  S
Fe199       O204   2.066       .  S
Fe199       O210   1.977       .  S
Fe200       O203   2.056       .  S
Fe200       O207   2.060       .  S
Fe200       O211   2.056   1_565  S
Fe200       O216   2.074       .  S
Fe200       O210   1.973       .  S
Fe201       O219   2.076       .  S
Fe201       O206   2.059       .  S
Fe201       O213   2.063       .  S
Fe201       O202   2.063       .  S
Fe201       O210   1.968       .  S
O202        C209   1.268       .  A
O203        C217   1.263       .  A
O204        C209   1.267       .  A
O205        C208   1.273       .  A
O206        C218   1.273       .  A
O207        C220   1.271       .  A
C208        O213   1.271       .  A
C208        C604   1.486       .  S
C209        C704   1.487   1_556  S
O211        C214   1.265       .  A
O212        C214   1.268       .  A
C214        C784   1.476       .  S
O215        C220   1.271       .  A
O216        C218   1.274       .  A
C217        O219   1.268       .  A
C217        C624   1.497       .  S
C218        C637   1.473       .  S
C220        C724   1.476       .  S
Fe221       O237   2.093       .  S
Fe221       O227   2.052       .  S
Fe221       O234   2.066       .  S
Fe221       O226   2.085       .  S
Fe221       O232   1.981       .  S
Fe222       O225   2.066       .  S
Fe222       O229   2.061       .  S
Fe222       O233   2.060       .  S
Fe222       O238   2.050       .  S
Fe222       O232   1.965       .  S
Fe223       O241   2.071       .  S
Fe223       O228   2.078       .  S
Fe223       O235   2.075       .  S
Fe223       O224   2.055       .  S
Fe223       O232   1.980       .  S
O224        C231   1.265       .  A
O225        C239   1.266       .  A
O226        C231   1.270       .  A
O227        C230   1.269       .  A
O228        C240   1.274       .  A
O229        C242   1.272       .  A
C230        O235   1.273       .  A
C230        C577   1.475       .  S
C231       C1204   1.476       .  S
O233        C236   1.265       .  A
O234        C236   1.266       .  A
C236        C564   1.491       .  S
O237        C242   1.277       .  A
O238        C240   1.272       .  A
C239        O241   1.266       .  A
C239        C517   1.499       .  S
C240        C544   1.477       .  S
C242        C617   1.494       .  S
Fe243       O259   2.056       .  S
Fe243       O249   2.085       .  S
Fe243       O256   2.077       .  S
Fe243       O248   2.059       .  S
Fe243       O254   1.975       .  S
Fe244       O247   2.048       .  S
Fe244       O251   2.081       .  S
Fe244       O255   2.035       .  S
Fe244       O260   2.093       .  S
Fe244       O254   1.970       .  S
Fe245       O263   2.061       .  S
Fe245       O250   2.044       .  S
Fe245       O257   2.049       .  S
Fe245       O246   2.056       .  S
Fe245       O254   1.965       .  S
O246        C253   1.264       .  A
O247        C261   1.261       .  A
O248        C253   1.264       .  A
O249        C252   1.275       .  A
O250        C262   1.271       .  A
O251        C264   1.274       .  A
C252        O257   1.270       .  A
C252        C497   1.487       .  S
C253        C584   1.485       .  S
O255        C258   1.262       .  A
O256        C258   1.268       .  A
C258        C884   1.470       .  S
O259        C264   1.269       .  A
O260        C262   1.278       .  A
C261        O263   1.264       .  A
C261        C744   1.488       .  S
C262        C644   1.482       .  S
C264        C557   1.491       .  S
Fe265       O281   2.067       .  S
Fe265       O271   2.092   1_655  S
Fe265       O278   2.091       .  S
Fe265       O270   2.059       .  S
Fe265       O276   1.979   1_655  S
Fe266       O269   2.053       .  S
Fe266       O273   2.066       .  S
Fe266       O277   2.049   1_455  S
Fe266       O282   2.078       .  S
Fe266       O276   1.981       .  S
Fe267       O285   2.071       .  S
Fe267       O272   2.054       .  S
Fe267       O279   2.059       .  S
Fe267       O268   2.063       .  S
Fe267       O276   1.972       .  S
O268        C275   1.267       .  A
O269        C283   1.263       .  A
O270        C275   1.266   1_655  A
O271        C274   1.276       .  A
O272        C284   1.271       .  A
O273        C286   1.271   1_455  A
C274        O279   1.270       .  A
C274        C664   1.498       .  S
C275        C477   1.489       .  S
O277        C280   1.264       .  A
O278        C280   1.271       .  A
C280       C1124   1.480       .  S
O281        C286   1.271       .  A
O282        C284   1.273       .  A
C283        O285   1.267       .  A
C283        C417   1.492       .  S
C284        C444   1.476       .  S
C286        C457   1.486       .  S
Fe287       O303   2.098   1_655  S
Fe287       O293   2.057       .  S
Fe287       O300   2.060       .  S
Fe287       O292   2.101       .  S
Fe287       O298   1.977   1_655  S
Fe288       O291   2.066       .  S
Fe288       O295   2.065       .  S
Fe288       O299   2.065       .  S
Fe288       O304   2.057       .  S
Fe288       O298   1.969       .  S
Fe289       O307   2.055       .  S
Fe289       O294   2.085       .  S
Fe289       O301   2.077       .  S
Fe289       O290   2.053   1_455  S
Fe289       O298   1.978       .  S
O290        C297   1.265       .  A
O291        C305   1.266       .  A
O292        C297   1.274       .  A
O293        C296   1.269   1_655  A
O294        C306   1.276       .  A
O295        C308   1.271       .  A
C296        O301   1.274       .  A
C296        C484   1.487   1_455  S
C297        C844   1.490       .  S
O299        C302   1.267       .  A
O300        C302   1.266   1_655  A
C302        C464   1.481       .  S
O303        C308   1.278       .  A
O304        C306   1.273       .  A
C305        O307   1.263       .  A
C305        C597   1.492       .  S
C306        C684   1.484       .  S
C308        C397   1.501       .  S
Fe309       O325   2.103       .  S
Fe309       O315   2.051       .  S
Fe309       O322   2.065       .  S
Fe309       O314   2.094       .  S
Fe309       O320   1.963       .  S
Fe310       O313   2.062       .  S
Fe310       O317   2.049       .  S
Fe310       O321   2.052       .  S
Fe310       O326   2.044       .  S
Fe310       O320   1.957       .  S
Fe311       O329   2.060       .  S
Fe311       O316   2.086       .  S
Fe311       O323   2.085       .  S
Fe311       O312   2.043       .  S
Fe311       O320   1.961       .  S
O312        C319   1.265       .  A
O313        C327   1.265       .  A
O314        C319   1.273       .  A
O315        C318   1.268       .  A
O316        C328   1.276       .  A
O317        C330   1.272       .  A
C318        O323   1.274       .  A
C318        C377   1.490       .  S
C319        C757   1.478       .  S
O321        C324   1.263       .  A
O322        C324   1.266       .  A
C324        C364   1.484       .  S
O325        C330   1.280       .  A
O326        C328   1.270       .  A
C327        O329   1.265       .  A
C327        C504   1.488       .  S
C328        C537   1.480       .  S
C330        C424   1.489       .  S
Fe331       O347   2.047       .  S
Fe331       O337   2.110       .  S
Fe331       O344   2.103       .  S
Fe331       O336   2.074       .  S
Fe331       O342   1.981       .  S
Fe332       O335   2.074       .  S
Fe332       O339   2.080       .  S
Fe332       O343   2.053       .  S
Fe332       O348   2.088       .  S
Fe332       O342   1.973       .  S
Fe333       O351   2.067       .  S
Fe333       O338   2.048       .  S
Fe333       O345   2.050       .  S
Fe333       O334   2.053       .  S
Fe333       O342   1.958       .  S
O334        C341   1.264       .  A
O335        C349   1.266       .  A
O336        C341   1.267       .  A
O337        C340   1.280       .  A
O338        C350   1.273       .  A
O339        C352   1.275       .  A
C340        O345   1.271       .  A
C340        C524   1.499       .  S
C341        C384   1.493   1_556  S
O343        C346   1.266       .  A
O344        C346   1.274       .  A
C346        C977   1.490       .  S
O347        C352   1.268       .  A
O348        C350   1.277       .  A
C349        O351   1.264       .  A
C349        C404   1.503       .  S
C350        C437   1.481       .  S
C352        C357   1.482       .  S
C353        C354   1.403       .  A
C353        C358   1.398       .  A
C353        F371   1.358       .  S
C354        C359   1.471       .  S
C354        C355   1.399       .  A
C355        C356   1.396       .  A
C355        F360   1.358       .  S
C356        C357   1.413       .  A
C356        F372   1.358       .  S
C357        C358   1.409       .  A
C358        F361   1.358       .  S
C359        C362   1.400       .  A
C359        C366   1.402       .  A
C362        C363   1.394       .  A
C362        F367   1.358       .  S
C363        C364   1.413       .  A
C363        F369   1.359       .  S
C364        C365   1.411       .  A
C365        C366   1.400       .  A
C365        F368   1.357       .  S
C366        F370   1.357       .  S
C373        C374   1.400       .  A
C373        C378   1.397       .  A
C373        F391   1.358       .  S
C374        C379   1.479       .  S
C374        C375   1.405       .  A
C375        C376   1.401       .  A
C375        F380   1.358       .  S
C376        C377   1.411       .  A
C376        F392   1.358       .  S
C377        C378   1.414       .  A
C378        F381   1.358       .  S
C379        C382   1.399       .  A
C379        C386   1.405       .  A
C382        C383   1.393       .  A
C382        F387   1.359       .  S
C383        C384   1.416       .  A
C383        F389   1.358       .  S
C384        C385   1.413       .  A
C385        C386   1.405       .  A
C385        F388   1.357   1_554  S
C386        F390   1.358       .  S
C393        C394   1.406       .  A
C393        C398   1.403       .  A
C393        F411   1.358       .  S
C394        C399   1.496       .  S
C394        C395   1.408       .  A
C395        C396   1.405       .  A
C395        F400   1.358       .  S
C396        C397   1.411       .  A
C396        F412   1.357       .  S
C397        C398   1.415       .  A
C398        F401   1.358       .  S
C399        C402   1.406       .  A
C399        C406   1.407       .  A
C402        C403   1.403       .  A
C402        F407   1.358       .  S
C403        C404   1.415       .  A
C403        F409   1.358       .  S
C404        C405   1.413       .  A
C405        C406   1.405       .  A
C405        F408   1.357       .  S
C406        F410   1.358       .  S
C413        C414   1.402       .  A
C413        C418   1.398       .  A
C413        F431   1.358       .  S
C414        C419   1.483       .  S
C414        C415   1.405       .  A
C415        C416   1.401       .  A
C415        F420   1.358       .  S
C416        C417   1.412       .  A
C416        F432   1.358       .  S
C417        C418   1.414       .  A
C418        F421   1.358       .  S
C419        C422   1.406       .  A
C419        C426   1.403       .  A
C422        C423   1.400       .  A
C422        F427   1.358       .  S
C423        C424   1.409       .  A
C423        F429   1.358       .  S
C424        C425   1.413       .  A
C425        C426   1.400       .  A
C425        F428   1.358       .  S
C426        F430   1.358       .  S
C433        C434   1.407   1_556  A
C433        C438   1.402       .  A
C433        F451   1.358       .  S
C434        C439   1.482       .  S
C434        C435   1.405       .  A
C435        C436   1.393       .  A
C435        F440   1.358       .  S
C436        C437   1.408   1_554  A
C436        F452   1.359       .  S
C437        C438   1.408       .  A
C438        F441   1.358       .  S
C439        C442   1.408       .  A
C439        C446   1.406       .  A
C442        C443   1.402       .  A
C442        F447   1.358       .  S
C443        C444   1.407       .  A
C443        F449   1.358       .  S
C444        C445   1.406       .  A
C445        C446   1.393       .  A
C445        F448   1.359       .  S
C446        F450   1.358       .  S
C453        C454   1.402       .  A
C453        C458   1.398       .  A
C453        F471   1.358       .  S
C454        C459   1.477   1_655  S
C454        C455   1.403   1_655  A
C455        C456   1.399       .  A
C455        F460   1.358       .  S
C456        C457   1.411   1_455  A
C456        F472   1.358       .  S
C457        C458   1.411       .  A
C458        F461   1.358       .  S
C459        C462   1.403   1_455  A
C459        C466   1.403       .  A
C462        C463   1.400       .  A
C462        F467   1.358       .  S
C463        C464   1.410   1_655  A
C463        F469   1.358       .  S
C464        C465   1.407       .  A
C465        C466   1.397       .  A
C465        F468   1.356       .  S
C466        F470   1.358       .  S
C473        C474   1.401       .  A
C473        C478   1.398   1_556  A
C473        F491   1.358       .  S
C474        C479   1.474   1_455  S
C474        C475   1.400   1_456  A
C475        C476   1.399       .  A
C475        F480   1.358       .  S
C476        C477   1.414   1_655  A
C476        F492   1.358       .  S
C477        C478   1.413       .  A
C478        F481   1.358       .  S
C479        C482   1.399       .  A
C479        C486   1.403   1_655  A
C482        C483   1.397       .  A
C482        F487   1.358       .  S
C483        C484   1.415       .  A
C483        F489   1.358       .  S
C484        C485   1.410   1_655  A
C485        C486   1.401       .  A
C485        F488   1.358       .  S
C486        F490   1.358       .  S
C493        C494   1.401       .  A
C493        C498   1.397       .  A
C493        F511   1.358       .  S
C494        C499   1.476       .  S
C494        C495   1.403       .  A
C495        C496   1.399       .  A
C495        F500   1.358       .  S
C496        C497   1.411       .  A
C496        F512   1.358       .  S
C497        C498   1.413       .  A
C498        F501   1.358       .  S
C499        C502   1.402       .  A
C499        C506   1.401       .  A
C502        C503   1.399       .  A
C502        F507   1.358       .  S
C503        C504   1.411       .  A
C503        F509   1.357       .  S
C504        C505   1.415       .  A
C505        C506   1.398       .  A
C505        F508   1.358       .  S
C506        F510   1.358       .  S
C513        C514   1.407       .  A
C513        C518   1.406       .  A
C513        F531   1.358       .  S
C514        C519   1.493       .  S
C514        C515   1.405       .  A
C515        C516   1.399       .  A
C515        F520   1.358       .  S
C516        C517   1.414       .  A
C516        F532   1.358       .  S
C517        C518   1.414       .  A
C518        F521   1.358       .  S
C519        C522   1.404       .  A
C519        C526   1.408       .  A
C522        C523   1.397       .  A
C522        F527   1.358       .  S
C523        C524   1.414       .  A
C523        F529   1.358       .  S
C524        C525   1.414       .  A
C525        C526   1.407       .  A
C525        F528   1.358       .  S
C526        F530   1.358       .  S
C533        C534   1.406       .  A
C533        C538   1.399       .  A
C533        F551   1.358       .  S
C534        C539   1.478       .  S
C534        C535   1.405       .  A
C535        C536   1.393       .  A
C535        F540   1.358       .  S
C536        C537   1.409       .  A
C536        F552   1.359       .  S
C537        C538   1.409       .  A
C538        F541   1.358       .  S
C539        C542   1.405       .  A
C539        C546   1.406       .  A
C542        C543   1.390       .  A
C542        F547   1.358       .  S
C543        C544   1.407       .  A
C543        F549   1.359       .  S
C544        C545   1.409       .  A
C545        C546   1.401       .  A
C545        F548   1.358       .  S
C546        F550   1.358       .  S
C553        C554   1.406       .  A
C553        C558   1.401       .  A
C553        F571   1.358       .  S
C554        C559   1.483       .  S
C554        C555   1.402       .  A
C555        C556   1.398       .  A
C555        F560   1.358       .  S
C556        C557   1.415       .  A
C556        F572   1.358       .  S
C557        C558   1.411       .  A
C558        F561   1.358       .  S
C559        C562   1.402       .  A
C559        C566   1.406       .  A
C562        C563   1.396       .  A
C562        F567   1.358       .  S
C563        C564   1.413       .  A
C563        F569   1.358       .  S
C564        C565   1.412       .  A
C565        C566   1.403       .  A
C565        F568   1.358       .  S
C566        F570   1.358       .  S
C573        C574   1.404       .  A
C573        C578   1.397       .  A
C573        F591   1.358       .  S
C574        C579   1.473       .  S
C574        C575   1.401       .  A
C575        C576   1.398       .  A
C575        F580   1.358       .  S
C576        C577   1.410       .  A
C576        F592   1.358       .  S
C577        C578   1.406       .  A
C578        F581   1.358       .  S
C579        C582   1.402   1_556  A
C579        C586   1.401       .  A
C582        C583   1.400       .  A
C582        F587   1.358       .  S
C583        C584   1.412       .  A
C583        F589   1.358       .  S
C584        C585   1.412       .  A
C585        C586   1.394   1_554  A
C585        F588   1.358       .  S
C586        F590   1.358       .  S
C593        C594   1.402       .  A
C593        C598   1.400       .  A
C593        F611   1.358       .  S
C594        C599   1.476       .  S
C594        C595   1.400       .  A
C595        C596   1.398       .  A
C595        F600   1.358       .  S
C596        C597   1.415       .  A
C596        F612   1.358       .  S
C597        C598   1.413       .  A
C598        F601   1.358       .  S
C599        C602   1.403       .  A
C599        C606   1.401       .  A
C602        C603   1.400       .  A
C602        F607   1.358       .  S
C603        C604   1.411       .  A
C603        F609   1.358       .  S
C604        C605   1.412       .  A
C605        C606   1.399       .  A
C605        F608   1.358       .  S
C606        F610   1.358       .  S
C613        C614   1.407       .  A
C613        C618   1.401       .  A
C613        F631   1.358       .  S
C614        C619   1.490       .  S
C614        C615   1.405       .  A
C615        C616   1.402       .  A
C615        F620   1.358       .  S
C616        C617   1.413       .  A
C616        F632   1.358       .  S
C617        C618   1.411       .  A
C618        F621   1.358       .  S
C619        C622   1.404       .  A
C619        C626   1.407       .  A
C622        C623   1.399       .  A
C622        F627   1.358       .  S
C623        C624   1.415       .  A
C623        F629   1.358       .  S
C624        C625   1.412       .  A
C625        C626   1.404       .  A
C625        F628   1.358       .  S
C626        F630   1.358       .  S
C633        C634   1.407       .  A
C633        C638   1.393       .  A
C633        F651   1.358       .  S
C634        C639   1.483       .  S
C634        C635   1.409   1_554  A
C635        C636   1.402       .  A
C635        F640   1.358       .  S
C636        C637   1.405       .  A
C636        F652   1.358       .  S
C637        C638   1.404   1_556  A
C638        F641   1.358       .  S
C639        C642   1.405       .  A
C639        C646   1.408       .  A
C642        C643   1.393       .  A
C642        F647   1.358   1_554  S
C643        C644   1.410       .  A
C643        F649   1.359       .  S
C644        C645   1.408       .  A
C645        C646   1.402       .  A
C645        F648   1.357       .  S
C646        F650   1.358       .  S
C653        C654   1.405       .  A
C653        C658   1.405       .  A
C653        F671   1.357       .  S
C654        C659   1.482       .  S
C654        C655   1.401       .  A
C655        C656   1.399       .  A
C655        F660   1.358       .  S
C656        C657   1.414       .  A
C656        F672   1.358       .  S
C657        C658   1.412       .  A
C658        F661   1.358       .  S
C659        C662   1.401       .  A
C659        C666   1.403       .  A
C662        C663   1.401       .  A
C662        F667   1.358       .  S
C663        C664   1.416       .  A
C663        F669   1.358       .  S
C664        C665   1.414       .  A
C665        C666   1.403       .  A
C665        F668   1.357       .  S
C666        F670   1.358       .  S
C673        C674   1.404       .  A
C673        C678   1.396       .  A
C673        F691   1.358       .  S
C674        C679   1.480       .  S
C674        C675   1.407       .  A
C675        C676   1.401       .  A
C675        F680   1.358       .  S
C676        C677   1.407       .  A
C676        F692   1.358       .  S
C677        C678   1.408       .  A
C678        F681   1.358       .  S
C679        C682   1.407       .  A
C679        C686   1.403       .  A
C682        C683   1.406       .  A
C682        F687   1.358       .  S
C683        C684   1.410       .  A
C683        F689   1.357       .  S
C684        C685   1.409       .  A
C685        C686   1.391       .  A
C685        F688   1.357       .  S
C686        F690   1.359       .  S
C693        C694   1.404       .  A
C693        C698   1.398       .  A
C693        F711   1.358       .  S
C694        C699   1.475       .  S
C694        C695   1.402   1_565  A
C695        C696   1.400       .  A
C695        F700   1.358       .  S
C696        C697   1.409   1_545  A
C696        F712   1.358       .  S
C697        C698   1.405       .  A
C698        F701   1.358       .  S
C699        C702   1.401       .  A
C699        C706   1.401       .  A
C702        C703   1.401       .  A
C702        F707   1.358   1_565  S
C703        C704   1.413       .  A
C703        F709   1.358   1_564  S
C704        C705   1.411       .  A
C705        C706   1.397       .  A
C705        F708   1.357       .  S
C706        F710   1.358       .  S
C713        C714   1.402       .  A
C713        C718   1.400       .  A
C713        F731   1.358   1_565  S
C714        C719   1.470       .  S
C714        C715   1.400       .  A
C715        C716   1.394       .  A
C715        F720   1.358       .  S
C716        C717   1.410       .  A
C716        F732   1.358       .  S
C717        C718   1.409       .  A
C718        F721   1.358       .  S
C719        C722   1.400       .  A
C719        C726   1.403       .  A
C722        C723   1.396       .  A
C722        F727   1.358   1_565  S
C723        C724   1.409       .  A
C723        F729   1.358   1_565  S
C724        C725   1.408       .  A
C725        C726   1.397       .  A
C725        F728   1.358       .  S
C726        F730   1.358       .  S
C733        C734   1.402       .  A
C733        C738   1.400       .  A
C733        F751   1.358       .  S
C734        C739   1.474       .  S
C734        C735   1.399       .  A
C735        C736   1.396       .  A
C735        F740   1.358       .  S
C736        C737   1.415       .  A
C736        F752   1.358       .  S
C737        C738   1.414       .  A
C738        F741   1.358       .  S
C739        C742   1.400       .  A
C739        C746   1.401       .  A
C742        C743   1.398       .  A
C742        F747   1.358       .  S
C743        C744   1.414       .  A
C743        F749   1.358       .  S
C744        C745   1.413       .  A
C745        C746   1.398       .  A
C745        F748   1.358       .  S
C746        F750   1.358       .  S
C753        C754   1.404       .  A
C753        C758   1.398       .  A
C753        F771   1.358       .  S
C754        C759   1.483       .  S
C754        C755   1.407       .  A
C755        C756   1.404       .  A
C755        F760   1.357       .  S
C756        C757   1.406       .  A
C756        F772   1.358       .  S
C757        C758   1.408       .  A
C758        F761   1.359       .  S
C759        C762   1.407       .  A
C759        C766   1.403       .  A
C762        C763   1.406       .  A
C762        F767   1.357       .  S
C763        C764   1.408       .  A
C763        F769   1.357       .  S
C764        C765   1.409       .  A
C765        C766   1.396       .  A
C765        F768   1.358       .  S
C766        F770   1.358       .  S
C773        C774   1.404       .  A
C773        C778   1.395       .  A
C773        F791   1.358       .  S
C774        C779   1.484       .  S
C774        C775   1.409       .  A
C775        C776   1.407       .  A
C775        F780   1.357       .  S
C776        C777   1.406       .  A
C776        F792   1.357       .  S
C777        C778   1.407       .  A
C778        F781   1.359       .  S
C779        C782   1.409       .  A
C779        C786   1.405       .  A
C782        C783   1.404       .  A
C782        F787   1.357       .  S
C783        C784   1.404       .  A
C783        F789   1.357       .  S
C784        C785   1.406       .  A
C785        C786   1.397       .  A
C785        F788   1.359       .  S
C786        F790   1.358       .  S
C793        C794   1.407       .  A
C793        C798   1.399       .  A
C793        F811   1.358       .  S
C794        C799   1.488       .  S
C794        C795   1.405       .  A
C795        C796   1.402       .  A
C795        F800   1.358       .  S
C796        C797   1.411       .  A
C796        F812   1.358       .  S
C797        C798   1.409       .  A
C798        F801   1.358       .  S
C799        C802   1.404       .  A
C799        C806   1.407       .  A
C802        C803   1.396       .  A
C802        F807   1.358       .  S
C803        C804   1.413   1_554  A
C803        F809   1.358       .  S
C804        C805   1.413       .  A
C805        C806   1.406   1_556  A
C805        F808   1.357       .  S
C806        F810   1.358       .  S
C813        C814   1.405       .  A
C813        C818   1.405       .  A
C813        F831   1.358       .  S
C814        C819   1.481       .  S
C814        C815   1.401       .  A
C815        C816   1.399       .  A
C815        F820   1.358       .  S
C816        C817   1.411       .  A
C816        F832   1.358       .  S
C817        C818   1.411       .  A
C818        F821   1.358       .  S
C819        C822   1.402       .  A
C819        C826   1.402       .  A
C822        C823   1.404       .  A
C822        F827   1.358       .  S
C823        C824   1.415       .  A
C823        F829   1.358       .  S
C824        C825   1.413       .  A
C825        C826   1.400       .  A
C825        F828   1.358       .  S
C826        F830   1.358       .  S
C833        C834   1.405       .  A
C833        C838   1.402       .  A
C833        F851   1.358       .  S
C834        C839   1.491       .  S
C834        C835   1.409       .  A
C835        C836   1.407       .  A
C835        F840   1.357       .  S
C836        C837   1.406       .  A
C836        F852   1.357       .  S
C837        C838   1.409       .  A
C838        F841   1.358       .  S
C839        C842   1.404       .  A
C839        C846   1.409       .  A
C842        C843   1.398       .  A
C842        F847   1.358       .  S
C843        C844   1.410       .  A
C843        F849   1.358       .  S
C844        C845   1.409       .  A
C845        C846   1.411       .  A
C845        F848   1.357       .  S
C846        F850   1.357       .  S
C853        C854   1.405       .  A
C853        C858   1.399       .  A
C853        F871   1.358       .  S
C854        C859   1.481       .  S
C854        C855   1.403       .  A
C855        C856   1.398       .  A
C855        F860   1.358       .  S
C856        C857   1.413       .  A
C856        F872   1.358       .  S
C857        C858   1.411       .  A
C858        F861   1.358       .  S
C859        C862   1.406       .  A
C859        C866   1.401       .  A
C862        C863   1.401       .  A
C862        F867   1.358       .  S
C863        C864   1.411       .  A
C863        F869   1.358       .  S
C864        C865   1.415       .  A
C865        C866   1.396       .  A
C865        F868   1.358       .  S
C866        F870   1.358       .  S
C873        C874   1.406       .  A
C873        C878   1.400       .  A
C873        F891   1.358       .  S
C874        C879   1.475       .  S
C874        C875   1.404       .  A
C875        C876   1.395       .  A
C875        F880   1.358       .  S
C876        C877   1.404       .  A
C876        F892   1.358       .  S
C877        C878   1.404       .  A
C878        F881   1.358       .  S
C879        C882   1.403       .  A
C879        C886   1.407       .  A
C882        C883   1.392       .  A
C882        F887   1.359       .  S
C883        C884   1.406       .  A
C883        F889   1.359       .  S
C884        C885   1.405       .  A
C885        C886   1.403       .  A
C885        F888   1.358       .  S
C886        F890   1.357       .  S
C893        C894   1.401       .  A
C893        C898   1.397       .  A
C893        F911   1.358       .  S
C894        C899   1.477       .  S
C894        C895   1.404       .  A
C895        C896   1.399       .  A
C895        F900   1.358       .  S
C896        C897   1.410       .  A
C896        F912   1.358       .  S
C897        C898   1.414       .  A
C898        F901   1.358       .  S
C899        C902   1.404       .  A
C899        C906   1.400       .  A
C902        C903   1.401       .  A
C902        F907   1.358       .  S
C903        C904   1.413       .  A
C903        F909   1.358       .  S
C904        C905   1.413       .  A
C905        C906   1.395       .  A
C905        F908   1.358       .  S
C906        F910   1.358       .  S
C913        C914   1.407       .  A
C913        C918   1.400       .  A
C913        F931   1.358       .  S
C914        C919   1.481   1_556  S
C914        C915   1.405   1_556  A
C915        C916   1.393   1_554  A
C915        F920   1.358       .  S
C916        C917   1.409       .  A
C916        F932   1.359       .  S
C917        C918   1.408       .  A
C918        F921   1.357       .  S
C919        C922   1.406       .  A
C919        C926   1.407       .  A
C922        C923   1.392       .  A
C922        F927   1.358   1_554  S
C923        C924   1.408       .  A
C923        F929   1.359       .  S
C924        C925   1.409       .  A
C925        C926   1.401       .  A
C925        F928   1.358       .  S
C926        F930   1.358       .  S
C933        C934   1.401       .  A
C933        C938   1.399       .  A
C933        F951   1.358       .  S
C934        C939   1.480       .  S
C934        C935   1.406   1_565  A
C935        C936   1.401       .  A
C935        F940   1.358       .  S
C936        C937   1.408   1_545  A
C936        F952   1.358       .  S
C937        C938   1.412       .  A
C938        F941   1.358       .  S
C939        C942   1.405   1_556  A
C939        C946   1.401   1_565  A
C942        C943   1.404       .  A
C942        F947   1.357   1_554  S
C943        C944   1.412   1_565  A
C943        F949   1.357       .  S
C944        C945   1.415       .  A
C945        C946   1.395   1_554  A
C945        F948   1.358       .  S
C946        F950   1.358       .  S
C953        C954   1.404       .  A
C953        C958   1.403       .  A
C953        F971   1.358       .  S
C954        C959   1.475       .  S
C954        C955   1.401   1_565  A
C955        C956   1.395       .  A
C955        F960   1.358       .  S
C956        C957   1.409       .  A
C956        F972   1.358       .  S
C957        C958   1.410   1_545  A
C958        F961   1.358       .  S
C959        C962   1.405   1_565  A
C959        C966   1.403       .  A
C962        C963   1.399       .  A
C962        F967   1.358       .  S
C963        C964   1.406   1_545  A
C963        F969   1.358       .  S
C964        C965   1.408       .  A
C965        C966   1.399       .  A
C965        F968   1.358       .  S
C966        F970   1.358       .  S
C973        C974   1.406       .  A
C973        C978   1.399       .  A
C973        F991   1.358       .  S
C974        C979   1.494       .  S
C974        C975   1.410       .  A
C975        C976   1.410       .  A
C975        F980   1.358       .  S
C976        C977   1.409       .  A
C976        F992   1.357       .  S
C977        C978   1.409       .  A
C978        F981   1.358       .  S
C979        C982   1.407       .  A
C979        C986   1.410       .  A
C982        C983   1.401       .  A
C982        F987   1.358       .  S
C983        C984   1.408       .  A
C983        F989   1.358       .  S
C984        C985   1.405       .  A
C985        C986   1.406       .  A
C985        F988   1.358       .  S
C986        F990   1.357       .  S
C993        C994   1.402       .  A
C993        C998   1.399       .  A
C993       F1011   1.358       .  S
C994        C999   1.481       .  S
C994        C995   1.405       .  A
C995        C996   1.401       .  A
C995       F1000   1.358       .  S
C996        C997   1.410       .  A
C996       F1012   1.358       .  S
C997        C998   1.412       .  A
C998       F1001   1.358       .  S
C999       C1002   1.405       .  A
C999       C1006   1.404       .  A
C1002      C1003   1.401       .  A
C1002      F1007   1.358       .  S
C1003      C1004   1.409       .  A
C1003      F1009   1.358       .  S
C1004      C1005   1.409       .  A
C1005      C1006   1.399       .  A
C1005      F1008   1.358       .  S
C1006      F1010   1.358       .  S
C1013      C1014   1.409       .  A
C1013      C1018   1.407       .  A
C1013      F1031   1.358       .  S
C1014      C1019   1.488       .  S
C1014      C1015   1.405       .  A
C1015      C1016   1.397       .  A
C1015      F1020   1.358       .  S
C1016      C1017   1.407       .  A
C1016      F1032   1.358       .  S
C1017      C1018   1.408       .  A
C1018      F1021   1.358       .  S
C1019      C1022   1.406       .  A
C1019      C1026   1.409       .  A
C1022      C1023   1.400       .  A
C1022      F1027   1.358       .  S
C1023      C1024   1.406       .  A
C1023      F1029   1.358       .  S
C1024      C1025   1.404       .  A
C1025      C1026   1.404       .  A
C1025      F1028   1.358       .  S
C1026      F1030   1.358       .  S
C1033      C1034   1.402       .  A
C1033      C1038   1.397       .  A
C1033      F1051   1.358       .  S
C1034      C1039   1.476       .  S
C1034      C1035   1.402       .  A
C1035      C1036   1.398       .  A
C1035      F1040   1.358       .  S
C1036      C1037   1.414       .  A
C1036      F1052   1.358       .  S
C1037      C1038   1.413       .  A
C1038      F1041   1.358       .  S
C1039      C1042   1.403       .  A
C1039      C1046   1.402       .  A
C1042      C1043   1.397       .  A
C1042      F1047   1.358       .  S
C1043      C1044   1.409       .  A
C1043      F1049   1.358       .  S
C1044      C1045   1.411       .  A
C1045      C1046   1.399       .  A
C1045      F1048   1.358       .  S
C1046      F1050   1.358       .  S
C1053      C1054   1.405       .  A
C1053      C1058   1.402       .  A
C1053      F1071   1.357       .  S
C1054      C1059   1.478       .  S
C1054      C1055   1.403       .  A
C1055      C1056   1.391       .  A
C1055      F1060   1.359       .  S
C1056      C1057   1.410       .  A
C1056      F1072   1.358       .  S
C1057      C1058   1.411       .  A
C1058      F1061   1.358       .  S
C1059      C1062   1.407       .  A
C1059      C1066   1.404       .  A
C1062      C1063   1.400       .  A
C1062      F1067   1.358       .  S
C1063      C1064   1.405       .  A
C1063      F1069   1.357       .  S
C1064      C1065   1.407       .  A
C1065      C1066   1.394       .  A
C1065      F1068   1.359       .  S
C1066      F1070   1.358       .  S
C1073      C1074   1.403       .  A
C1073      C1078   1.402       .  A
C1073      F1091   1.358       .  S
C1074      C1079   1.477       .  S
C1074      C1075   1.400       .  A
C1075      C1076   1.397       .  A
C1075      F1080   1.358   1_655  S
C1076      C1077   1.414       .  A
C1076      F1092   1.358   1_655  S
C1077      C1078   1.413       .  A
C1078      F1081   1.358       .  S
C1079      C1082   1.403       .  A
C1079      C1086   1.400       .  A
C1082      C1083   1.400       .  A
C1082      F1087   1.358       .  S
C1083      C1084   1.412   1_554  A
C1083      F1089   1.358       .  S
C1084      C1085   1.415       .  A
C1085      C1086   1.399   1_556  A
C1085      F1088   1.358       .  S
C1086      F1090   1.358       .  S
C1093      C1094   1.405       .  A
C1093      C1098   1.397       .  A
C1093      F1111   1.358       .  S
C1094      C1099   1.476       .  S
C1094      C1095   1.401       .  A
C1095      C1096   1.394       .  A
C1095      F1100   1.358   1_655  S
C1096      C1097   1.415       .  A
C1096      F1112   1.358   1_655  S
C1097      C1098   1.411       .  A
C1098      F1101   1.358       .  S
C1099      C1102   1.407       .  A
C1099      C1106   1.402       .  A
C1102      C1103   1.400       .  A
C1102      F1107   1.358   1_655  S
C1103      C1104   1.406       .  A
C1103      F1109   1.358   1_655  S
C1104      C1105   1.409       .  A
C1105      C1106   1.392       .  A
C1105      F1108   1.359       .  S
C1106      F1110   1.358       .  S
C1113      C1114   1.408       .  A
C1113      C1118   1.404       .  A
C1113      F1131   1.357       .  S
C1114      C1119   1.486       .  S
C1114      C1115   1.405       .  A
C1115      C1116   1.400       .  A
C1115      F1120   1.358       .  S
C1116      C1117   1.408       .  A
C1116      F1132   1.358       .  S
C1117      C1118   1.406       .  A
C1118      F1121   1.357       .  S
C1119      C1122   1.404       .  A
C1119      C1126   1.409       .  A
C1122      C1123   1.396       .  A
C1122      F1127   1.358       .  S
C1123      C1124   1.405       .  A
C1123      F1129   1.358       .  S
C1124      C1125   1.408       .  A
C1125      C1126   1.408       .  A
C1125      F1128   1.358       .  S
C1126      F1130   1.358       .  S
C1133      C1134   1.406       .  A
C1133      C1138   1.403       .  A
C1133      F1151   1.358       .  S
C1134      C1139   1.487       .  S
C1134      C1135   1.403       .  A
C1135      C1136   1.398       .  A
C1135      F1140   1.358       .  S
C1136      C1137   1.414       .  A
C1136      F1152   1.358       .  S
C1137      C1138   1.414       .  A
C1138      F1141   1.358       .  S
C1139      C1142   1.404       .  A
C1139      C1146   1.407       .  A
C1142      C1143   1.401       .  A
C1142      F1147   1.358       .  S
C1143      C1144   1.413       .  A
C1143      F1149   1.358       .  S
C1144      C1145   1.410       .  A
C1145      C1146   1.401       .  A
C1145      F1148   1.358       .  S
C1146      F1150   1.358       .  S
C1153      C1154   1.404       .  A
C1153      C1158   1.400       .  A
C1153      F1171   1.358       .  S
C1154      C1159   1.479       .  S
C1154      C1155   1.402       .  A
C1155      C1156   1.396       .  A
C1155      F1160   1.358       .  S
C1156      C1157   1.414       .  A
C1156      F1172   1.358       .  S
C1157      C1158   1.411       .  A
C1158      F1161   1.358       .  S
C1159      C1162   1.401       .  A
C1159      C1166   1.404       .  A
C1162      C1163   1.397       .  A
C1162      F1167   1.358       .  S
C1163      C1164   1.416       .  A
C1163      F1169   1.358       .  S
C1164      C1165   1.412       .  A
C1165      C1166   1.399       .  A
C1165      F1168   1.358       .  S
C1166      F1170   1.358       .  S
C1173      C1174   1.406       .  A
C1173      C1178   1.397       .  A
C1173      F1191   1.358   1_554  S
C1174      C1179   1.480   1_554  S
C1174      C1175   1.408       .  A
C1175      C1176   1.400       .  A
C1175      F1180   1.358       .  S
C1176      C1177   1.403       .  A
C1176      F1192   1.358       .  S
C1177      C1178   1.403       .  A
C1178      F1181   1.358       .  S
C1179      C1182   1.408       .  A
C1179      C1186   1.405       .  A
C1182      C1183   1.406       .  A
C1182      F1187   1.357   1_556  S
C1183      C1184   1.407       .  A
C1183      F1189   1.358       .  S
C1184      C1185   1.403       .  A
C1185      C1186   1.389       .  A
C1185      F1188   1.359       .  S
C1186      F1190   1.359       .  S
C1193      C1194   1.411       .  A
C1193      C1198   1.408       .  A
C1193      F1211   1.357       .  S
C1194      C1199   1.493       .  S
C1194      C1195   1.406       .  A
C1195      C1196   1.396       .  A
C1195      F1200   1.358       .  S
C1196      C1197   1.408       .  A
C1196      F1212   1.359       .  S
C1197      C1198   1.406       .  A
C1198      F1201   1.357       .  S
C1199      C1202   1.408       .  A
C1199      C1206   1.411       .  A
C1202      C1203   1.400       .  A
C1202      F1207   1.358       .  S
C1203      C1204   1.404       .  A
C1203      F1209   1.358       .  S
C1204      C1205   1.404       .  A
C1205      C1206   1.405       .  A
C1205      F1208   1.358       .  S
C1206      F1210   1.358       .  S
C1213      C1214   1.402       .  A
C1213      C1218   1.400       .  A
C1213      F1231   1.358       .  S
C1214      C1219   1.475       .  S
C1214      C1215   1.399       .  A
C1215      C1216   1.399       .  A
C1215      F1220   1.358       .  S
C1216      C1217   1.416       .  A
C1216      F1232   1.358       .  S
C1217      C1218   1.412       .  A
C1218      F1221   1.358       .  S
C1219      C1222   1.402       .  A
C1219      C1226   1.400       .  A
C1222      C1223   1.401       .  A
C1222      F1227   1.358       .  S
C1223      C1224   1.412       .  A
C1223      F1229   1.358       .  S
C1224      C1225   1.412       .  A
C1225      C1226   1.398       .  A
C1225      F1228   1.358       .  S
C1226      F1230   1.358       .  S
C1233      C1234   1.405       .  A
C1233      C1238   1.398       .  A
C1233      F1251   1.358       .  S
C1234      C1239   1.477       .  S
C1234      C1235   1.406       .  A
C1235      C1236   1.401       .  A
C1235      F1240   1.358       .  S
C1236      C1237   1.405       .  A
C1236      F1252   1.358       .  S
C1237      C1238   1.403       .  A
C1238      F1241   1.358       .  S
C1239      C1242   1.406       .  A
C1239      C1246   1.403       .  A
C1242      C1243   1.405       .  A
C1242      F1247   1.357       .  S
C1243      C1244   1.407       .  A
C1243      F1249   1.357       .  S
C1244      C1245   1.407       .  A
C1245      C1246   1.393       .  A
C1245      F1248   1.359       .  S
C1246      F1250   1.359       .  S
C1253      C1254   1.404       .  A
C1253      C1258   1.401       .  A
C1253      F1271   1.358       .  S
C1254      C1259   1.482       .  S
C1254      C1255   1.401       .  A
C1255      C1256   1.399       .  A
C1255      F1260   1.358       .  S
C1256      C1257   1.416       .  A
C1256      F1272   1.358       .  S
C1257      C1258   1.413       .  A
C1258      F1261   1.358       .  S
C1259      C1262   1.404       .  A
C1259      C1266   1.403       .  A
C1262      C1263   1.400       .  A
C1262      F1267   1.358       .  S
C1263      C1264   1.412       .  A
C1263      F1269   1.358       .  S
C1264      C1265   1.414       .  A
C1265      C1266   1.401       .  A
C1265      F1268   1.358       .  S
C1266      F1270   1.358       .  S
C1273      C1274   1.399       .  A
C1273      C1278   1.397       .  A
C1273      F1291   1.358       .  S
C1274      C1279   1.475       .  S
C1274      C1275   1.403       .  A
C1275      C1276   1.401       .  A
C1275      F1280   1.358       .  S
C1276      C1277   1.412       .  A
C1276      F1292   1.358       .  S
C1277      C1278   1.417       .  A
C1278      F1281   1.358       .  S
C1279      C1282   1.403       .  A
C1279      C1286   1.399       .  A
C1282      C1283   1.403   1_556  A
C1282      F1287   1.358       .  S
C1283      C1284   1.413       .  A
C1283      F1289   1.358       .  S
C1284      C1285   1.414       .  A
C1285      C1286   1.395   1_554  A
C1285      F1288   1.358       .  S
C1286      F1290   1.358       .  S
C1293      C1294   1.401       .  A
C1293      C1298   1.400       .  A
C1293      F1311   1.358       .  S
C1294      C1299   1.476       .  S
C1294      C1295   1.401       .  A
C1295      C1296   1.397       .  A
C1295      F1300   1.358       .  S
C1296      C1297   1.415       .  A
C1296      F1312   1.358       .  S
C1297      C1298   1.414       .  A
C1298      F1301   1.357       .  S
C1299      C1302   1.405       .  A
C1299      C1306   1.401       .  A
C1302      C1303   1.401       .  A
C1302      F1307   1.358       .  S
C1303      C1304   1.409       .  A
C1303      F1309   1.358       .  S
C1304      C1305   1.410       .  A
C1305      C1306   1.397       .  A
C1305      F1308   1.358       .  S
C1306      F1310   1.358       .  S
