geometry optimzed in LAMMPS
_audit_creation_date              2020-12-01 
_audit_creation_method            'lammps2cif' 
_symmetry_space_group_name_H-M    'P1' 
_symmetry_Int_Tables_number       1 
_symmetry_cell_setting            triclinic 
loop_ 
_symmetry_equiv_pos_as_xyz 
  x,y,z 
_cell_length_a                    126.14200096 
_cell_length_b                    125.74423673313409 
_cell_length_c                    30.503284646383275 
_cell_angle_alpha                 90.18713304269947 
_cell_angle_beta                  90.14654397629793 
_cell_angle_gamma                 120.33687034563522 
loop_ 
_atom_site_label 
_atom_site_type_symbol 
_atom_site_fract_x 
_atom_site_fract_y 
_atom_site_fract_z 
_atom_site_charge 
O1          O  0.26898560  0.08923286  0.31804553    -0.85000
O2          O  0.28599037  0.08188612  0.31546384    -0.82000
C3          C  0.29147758  0.07636050  0.30335153     0.98500
O4          O  0.28974700  0.07179471  0.26508610    -0.82100
O5          O  0.26541538  0.05302527  0.26263034    -0.84700
C6          C  0.25385176  0.04744347  0.26049630     1.03000
O7          O  0.24841369  0.05297719  0.24682366    -0.77500
O8          O  0.25360512  0.07028268  0.31195548    -0.77700
C9          C  0.26044755  0.07958938  0.33541915     1.03000
O10         O  0.27638085  0.09958732  0.23245471    -0.85000
O11         O  0.29499991  0.09403873  0.23273190    -0.82000
C12         C  0.29469852  0.09015370  0.19415075     0.98500
O13         O  0.28580766  0.08002650  0.18153592    -0.82100
O14         O  0.26262503  0.06024491  0.17643956    -0.84700
C15         C  0.25787510  0.06587077  0.15814725     1.03000
O16         O  0.25456549  0.07207183  0.18110927    -0.77500
O17         O  0.25672097  0.08837644  0.24664133    -0.77600
C18         C  0.26585778  0.09841944  0.23395341     1.02900
Cr19       Cr  0.28081870  0.09018127  0.27279450     1.93700
Cr20       Cr  0.27551366  0.06690881  0.22331807     1.93200
Cr21       Cr  0.25436755  0.07123898  0.24662241     1.39100
O22         O  0.27024055  0.07609511  0.24771035    -1.22700
O23         O  0.27510113  0.07896195  0.83177834    -0.85000
O24         O  0.29507299  0.08247409  0.78441603    -0.82000
C25         C  0.29353755  0.07181956  0.77970144     0.98500
O26         O  0.28446317  0.06370155  0.75849363    -0.82100
O27         O  0.26253216  0.05251773  0.71274166    -0.84700
C28         C  0.25371488  0.04813508  0.73966531     1.03000
O29         O  0.25120665  0.05517246  0.76120919    -0.77500
O30         O  0.25689065  0.07570042  0.81195703    -0.77700
C31         C  0.26423310  0.07600648  0.84126377     1.03000
O32         O  0.27448347  0.09802010  0.78368229    -0.85000
O33         O  0.29260353  0.09916767  0.72845730    -0.82000
C34         C  0.29812234  0.09555856  0.70335328     0.98500
O35         O  0.29437798  0.08417121  0.69890578    -0.82100
O36         O  0.27220315  0.07408459  0.65809177    -0.84700
C37         C  0.26136200  0.07155715  0.65088412     1.03000
O38         O  0.25368382  0.06857515  0.68176136    -0.77500
O39         O  0.26072287  0.08980878  0.73167003    -0.77600
C40         C  0.26725750  0.09877306  0.75691616     1.02900
Cr41       Cr  0.28340601  0.08871619  0.77941984     1.93700
Cr42       Cr  0.27785771  0.06915183  0.70979137     1.93200
Cr43       Cr  0.25687322  0.07265189  0.74644209     1.39100
O44         O  0.27262687  0.07675129  0.74510934    -1.22700
O45         O  0.19232603  0.91768268  0.22159355    -0.85000
O46         O  0.21622024  0.92566921  0.24360897    -0.82000
C47         C  0.22616936  0.93035517  0.26465779     0.98500
O48         O  0.22667313  0.93402142  0.30367099    -0.82100
O49         O  0.22106318  0.95281194  0.29803964    -0.84700
C50         C  0.21493856  0.95820391  0.29517785     1.03000
O51         O  0.20335130  0.95220593  0.29987056    -0.77500
O52         O  0.19429476  0.93593953  0.22897825    -0.77700
C53         C  0.19340757  0.92733328  0.20467065     1.03000
O54         O  0.18466732  0.90531744  0.30376605    -0.85000
O55         O  0.20818818  0.91140078  0.32331818    -0.82000
C56         C  0.20944610  0.91426473  0.36360437     0.98500
O57         O  0.21021485  0.92419118  0.37614731    -0.82100
O58         O  0.20679924  0.94413407  0.37584534    -0.84700
C59         C  0.19560179  0.93842813  0.38643026     1.03000
O60         O  0.18746900  0.93210842  0.35811243    -0.77500
O61         O  0.17664685  0.91673048  0.28696708    -0.77600
C62         C  0.17541050  0.90649864  0.29865465     1.02900
Cr63       Cr  0.20049575  0.91605444  0.27503925     1.93700
Cr64       Cr  0.21523262  0.93816461  0.33562921     1.93200
Cr65       Cr  0.19121538  0.93393898  0.29391170     1.39100
O66         O  0.20228630  0.92937506  0.30142746    -1.22700
O67         O  0.19555042  0.92396530  0.70200239    -0.85000
O68         O  0.21407185  0.92107509  0.73535234    -0.82000
C69         C  0.22368419  0.93149709  0.73212127     0.98500
O70         O  0.22492424  0.94053005  0.75441780    -0.82100
O71         O  0.21893960  0.95439126  0.80892286    -0.84700
C72         C  0.21348419  0.95883937  0.78769424     1.03000
O73         O  0.20265045  0.95201316  0.77408472    -0.77500
O74         O  0.18463086  0.93139260  0.73177684    -0.77700
C75         C  0.18873544  0.92856408  0.69830255     1.03000
O76         O  0.17915250  0.90773643  0.76565755    -0.85000
O77         O  0.19840633  0.90729377  0.80714371    -0.82000
C78         C  0.20878814  0.91101060  0.82444589     0.98500
O79         O  0.21727622  0.92207078  0.82020468    -0.82100
O80         O  0.20913723  0.93430671  0.87084240    -0.84700
C81         C  0.20138558  0.93698651  0.88489102     1.03000
O82         O  0.19535735  0.93980924  0.85864741    -0.77500
O83         O  0.17737259  0.91890840  0.81677783    -0.77600
C84         C  0.17314103  0.90883843  0.79636903     1.02900
Cr85       Cr  0.19712851  0.91616226  0.75530349     1.93700
Cr86       Cr  0.21628040  0.93728973  0.81160034     1.93200
Cr87       Cr  0.19088471  0.93507237  0.79466583     1.39100
O88         O  0.20142397  0.92965239  0.78691831    -1.22700
O89         O  0.38752051  0.13839682  0.37589862    -0.85000
O90         O  0.36793553  0.12240068  0.42710850    -0.82000
C91         C  0.36859583  0.11276849  0.43136883     0.98500
O92         O  0.37778167  0.11322506  0.44984063    -0.82100
O93         O  0.40074879  0.12335518  0.49140470    -0.84700
C94         C  0.40837437  0.12664936  0.46032714     1.03000
O95         O  0.41073775  0.13598012  0.43765163    -0.77500
O96         O  0.40645759  0.15256386  0.39279277    -0.77700
C97         C  0.39844690  0.14577402  0.36459524     1.03000
O98         O  0.39032641  0.15865506  0.42886316    -0.85000
O99         O  0.37244203  0.14201905  0.48483873    -0.82000
C100        C  0.36767998  0.13344573  0.51264955     0.98500
O101        O  0.37048413  0.12510304  0.51342981    -0.82100
O102        O  0.39313569  0.13655093  0.54865782    -0.84700
C103        C  0.40432109  0.14437587  0.55335923     1.03000
O104        O  0.41149041  0.14803040  0.52068623    -0.77500
O105        O  0.40524587  0.16328966  0.47573242    -0.77600
C106        C  0.39817928  0.16609006  0.45598005     1.02900
Cr107      Cr  0.38047033  0.14026408  0.43126456     1.93700
Cr108      Cr  0.38605966  0.12557422  0.49780027     1.93200
Cr109      Cr  0.40729101  0.14913763  0.45713053     1.39100
O110        O  0.39130490  0.13834610  0.46212438    -1.22700
O111        O  0.39268860  0.14909179  0.88201086    -0.85000
O112        O  0.37539975  0.12468234  0.89099164    -0.82000
C113        C  0.36980369  0.11393185  0.90619813     0.98500
O114        O  0.37165045  0.11201428  0.94533982    -0.82100
O115        O  0.39595704  0.11766387  0.94634674    -0.84700
C116        C  0.40751650  0.12351882  0.94934826     1.03000
O117        O  0.41314475  0.13475485  0.96144544    -0.77500
O118        O  0.40857480  0.14663550  0.89285284    -0.77700
C119        C  0.40205425  0.14901524  0.86759884     1.03000
O120        O  0.38575763  0.15435873  0.96468224    -0.85000
O121        O  0.36709573  0.13000014  0.97247870    -0.82000
C122        C  0.36750445  0.12695050  0.01181026     0.98500
O123        O  0.37630420  0.12576470  0.02499004    -0.82100
O124        O  0.39924496  0.12886488  0.03057186    -0.84700
C125        C  0.40395376  0.13942391  0.04787326     1.03000
O126        O  0.40717783  0.14873321  0.02380745    -0.77500
O127        O  0.40555233  0.16235699  0.95472384    -0.77600
C128        C  0.39642281  0.16367192  0.96295658     1.02900
Cr129      Cr  0.38103159  0.13929192  0.92971849     1.93700
Cr130      Cr  0.38619635  0.12212097  0.98456988     1.93200
Cr131      Cr  0.40750414  0.14733542  0.95825879     1.39100
O132        O  0.39157073  0.13628984  0.95729953    -1.22700
O133        O  0.45646237  0.05168388  0.48500085    -0.85000
O134        O  0.44189342  0.03373670  0.42472108    -0.82000
C135        C  0.43271226  0.03503636  0.42862428     0.98500
O136        O  0.43331110  0.04482501  0.41551303    -0.82100
O137        O  0.44300810  0.06879058  0.38417067    -0.84700
C138        C  0.44791487  0.07711480  0.41314942     1.03000
O139        O  0.45772034  0.07928613  0.43204426    -0.77500
O140        O  0.47088169  0.07124706  0.47844338    -0.77700
C141        C  0.46331218  0.06219024  0.50182512     1.03000
O142        O  0.47753315  0.05598070  0.43912615    -0.85000
O143        O  0.46229173  0.04096295  0.37073783    -0.82000
C144        C  0.45393499  0.03707480  0.34175673     0.98500
O145        O  0.44558461  0.03992605  0.34284687    -0.82100
O146        O  0.45565896  0.06359988  0.31771592    -0.84700
C147        C  0.46523746  0.07404291  0.31649969     1.03000
O148        O  0.47058910  0.07994539  0.35115744    -0.77500
O149        O  0.48365564  0.07168746  0.39615841    -0.77600
C150        C  0.48592059  0.06445827  0.41708919     1.02900
Cr151      Cr  0.45952382  0.04666553  0.42778739     1.93700
Cr152      Cr  0.44538890  0.05463722  0.36817385     1.93200
Cr153      Cr  0.46977093  0.07429644  0.41348596     1.39100
O154        O  0.45829462  0.05870856  0.40260900    -1.22700
O155        O  0.46598427  0.05984002  0.00514841    -0.85000
O156        O  0.44629356  0.03896956  0.97199104    -0.82000
C157        C  0.43733112  0.04079737  0.97217667     0.98500
O158        O  0.43780786  0.04954608  0.95050317    -0.82100
O159        O  0.44663237  0.06954205  0.89421698    -0.84700
C160        C  0.45268855  0.07930506  0.91636066     1.03000
O161        O  0.46309196  0.08218496  0.93161913    -0.77500
O162        O  0.47925706  0.07754242  0.97476964    -0.77700
C163        C  0.47356568  0.07122529  0.00812122     1.03000
O164        O  0.48185317  0.05746234  0.94455525    -0.85000
O165        O  0.46126801  0.03809148  0.90342431    -0.82000
C166        C  0.45079752  0.03238355  0.88526867     0.98500
O167        O  0.44363778  0.03664919  0.88702600    -0.82100
O168        O  0.45423120  0.05693523  0.83573358    -0.84700
C169        C  0.46272121  0.06704984  0.82147092     1.03000
O170        O  0.46959860  0.07574666  0.84753488    -0.77500
O171        O  0.48536652  0.07033006  0.89114721    -0.77600
C172        C  0.48851069  0.06395192  0.91342196     1.02900
Cr173      Cr  0.46377624  0.04949136  0.95358470     1.93700
Cr174      Cr  0.44684046  0.05377972  0.89404366     1.93200
Cr175      Cr  0.47336244  0.07516032  0.91183990     1.39100
O176        O  0.46137741  0.05957237  0.91973348    -1.22700
O177        O  0.40277178  0.94143623  0.03921986    -0.85000
O178        O  0.40947477  0.96315476  0.08233872    -0.82000
C179        C  0.39943340  0.96276191  0.08918582     0.98500
O180        O  0.39118064  0.95407466  0.11115170    -0.82100
O181        O  0.37943281  0.93280943  0.16108111    -0.84700
C182        C  0.37420639  0.92304734  0.13828525     1.03000
O183        O  0.38036370  0.91931967  0.11770501    -0.77500
O184        O  0.39861086  0.92300302  0.06102522    -0.77700
C185        C  0.39821823  0.93007022  0.03199019     1.03000
O186        O  0.42199252  0.93987510  0.08118404    -0.85000
O187        O  0.42597118  0.95959836  0.13524387    -0.82000
C188        C  0.42341714  0.96582044  0.16129940     0.98500
O189        O  0.41242282  0.96324093  0.16704531    -0.82100
O190        O  0.40156803  0.94216878  0.21206490    -0.84700
C191        C  0.39964820  0.93166726  0.22187938     1.03000
O192        O  0.39584624  0.92309932  0.19353290    -0.77500
O193        O  0.41490132  0.92792347  0.13794240    -0.77600
C194        C  0.42315197  0.93330514  0.10968550     1.02900
Cr195      Cr  0.41416802  0.95019501  0.08732779     1.93700
Cr196      Cr  0.39650452  0.94738528  0.16003071     1.93200
Cr197      Cr  0.39784792  0.92461007  0.12741649     1.39100
O198        O  0.40269982  0.94062756  0.12513650    -1.22700
O199        O  0.40948042  0.94322064  0.54813889    -0.85000
O200        O  0.41113730  0.96304738  0.59315695    -0.82000
C201        C  0.40070691  0.96173868  0.58547808     0.98500
O202        O  0.39127904  0.95303045  0.60272454    -0.82100
O203        O  0.37607730  0.93105462  0.64234750    -0.84700
C204        C  0.37252435  0.92212552  0.61626719     1.03000
O205        O  0.37973995  0.91867354  0.60286149    -0.77500
O206        O  0.40143851  0.92360697  0.56597135    -0.77700
C207        C  0.40509279  0.93204748  0.53737470     1.03000
O208        O  0.42388127  0.94037414  0.61283929    -0.85000
O209        O  0.42271429  0.95780485  0.66480224    -0.82000
C210        C  0.41793750  0.96272212  0.68729135     0.98500
O211        O  0.40716705  0.96045684  0.67880967    -0.82100
O212        O  0.39283818  0.93770475  0.71345127    -0.84700
C213        C  0.39025627  0.92679877  0.72086720     1.03000
O214        O  0.38950294  0.91962748  0.69015969    -0.77500
O215        O  0.41137321  0.92490718  0.65386898    -0.77600
C216        C  0.42192563  0.93179945  0.63859813     1.02900
Cr217      Cr  0.41557104  0.95015432  0.60686542     1.93700
Cr218      Cr  0.39256723  0.94503128  0.65699830     1.93200
Cr219      Cr  0.39597430  0.92310528  0.62841771     1.39100
O220        O  0.40127809  0.93927889  0.63081755    -1.22700
O221        O  0.24346182  0.85311888  0.14413508    -0.85000
O222        O  0.25262161  0.87781308  0.12993818    -0.82000
C223        C  0.25864741  0.88830388  0.11275569     0.98500
O224        O  0.26359979  0.88952868  0.07584003    -0.82100
O225        O  0.28075419  0.88196927  0.08605579    -0.84700
C226        C  0.28552491  0.87525421  0.08707501     1.03000
O227        O  0.27924154  0.86397029  0.07598491    -0.77500
O228        O  0.26116091  0.85369098  0.14024330    -0.77700
C229        C  0.25219662  0.85259038  0.16248686     1.03000
O230        O  0.23324196  0.84792009  0.05714137    -0.85000
O231        O  0.24090375  0.87229410  0.04468652    -0.82000
C232        C  0.24548456  0.87527566  0.00667881     0.98500
O233        O  0.25539605  0.87564094  0.99745426    -0.82100
O234        O  0.27387263  0.87021242  0.00172683    -0.84700
C235        C  0.26756163  0.85954668  0.98542368     1.03000
O236        O  0.26027702  0.85070448  0.00954484    -0.77500
O237        O  0.24314009  0.83842934  0.07511758    -0.77600
C238        C  0.23346547  0.83808627  0.06158750     1.02900
Cr239      Cr  0.24361150  0.86288550  0.09232288     1.93700
Cr240      Cr  0.26767220  0.87829601  0.04265046     1.93200
Cr241      Cr  0.26073746  0.85255745  0.07484632     1.39100
O242        O  0.25729483  0.86457167  0.07020340    -1.22700
O243        O  0.25369125  0.86298049  0.66286333    -0.85000
O244        O  0.24871009  0.87916697  0.61823080    -0.82000
C245        C  0.25898412  0.88883415  0.61354535     0.98500
O246        O  0.26738941  0.88852446  0.59243373    -0.82100
O247        O  0.27947361  0.87909011  0.54523837    -0.84700
C248        C  0.28403642  0.87435110  0.56992961     1.03000
O249        O  0.27732607  0.86430217  0.58922363    -0.77500
O250        O  0.25746416  0.84861618  0.63935717    -0.77700
C251        C  0.25697228  0.85518920  0.67025918     1.03000
O252        O  0.23509740  0.84299658  0.61346584    -0.85000
O253        O  0.23277932  0.85982602  0.56101519    -0.82000
C254        C  0.23599267  0.86890060  0.53584200     0.98500
O255        O  0.24715106  0.87719808  0.53201334    -0.82100
O256        O  0.25813334  0.86679600  0.48867028    -0.84700
C257        C  0.26048524  0.85846601  0.47948737     1.03000
O258        O  0.26383354  0.85369737  0.50898964    -0.77500
O259        O  0.24322772  0.83875685  0.55808877    -0.77600
C260        C  0.23451655  0.83550355  0.58463367     1.02900
Cr261      Cr  0.24353745  0.86137976  0.61119713     1.93700
Cr262      Cr  0.26259680  0.87682486  0.54224328     1.93200
Cr263      Cr  0.26009776  0.85223764  0.57400136     1.39100
O264        O  0.25555437  0.86354606  0.57577101    -1.22700
O265        O  0.74327202  0.61387521  0.36951955    -0.85000
O266        O  0.74841884  0.63489166  0.41303803    -0.82000
C267        C  0.73827959  0.63446882  0.41778156     0.98500
O268        O  0.72992341  0.62619225  0.44098434    -0.82100
O269        O  0.71736390  0.60449080  0.48843844    -0.84700
C270        C  0.71230271  0.59545135  0.46213106     1.03000
O271        O  0.71858329  0.59188483  0.44149563    -0.77500
O272        O  0.73795509  0.59516103  0.39110665    -0.77700
C273        C  0.73860865  0.60255217  0.36153224     1.03000
O274        O  0.76163752  0.61217714  0.42034128    -0.85000
O275        O  0.76429405  0.63177395  0.47136876    -0.82000
C276        C  0.76130446  0.63811624  0.49489679     0.98500
O277        O  0.75015579  0.63497193  0.49991744    -0.82100
O278        O  0.73915296  0.61313800  0.54301407    -0.84700
C279        C  0.73640299  0.60223587  0.55107208     1.03000
O280        O  0.73203492  0.59401735  0.52142120    -0.77500
O281        O  0.75197935  0.59856849  0.47152572    -0.77600
C282        C  0.76133152  0.60458006  0.44803986     1.02900
Cr283      Cr  0.75342041  0.62228079  0.42128833     1.93700
Cr284      Cr  0.73455482  0.61899940  0.49053925     1.93200
Cr285      Cr  0.73559525  0.59624545  0.45639032     1.39100
O286        O  0.74111428  0.61245623  0.45608672    -1.22700
O287        O  0.75162742  0.60754409  0.87998268    -0.85000
O288        O  0.74577329  0.62555883  0.89332526    -0.82000
C289        C  0.74162212  0.63176055  0.91095780     0.98500
O290        O  0.73803979  0.62977216  0.95030294    -0.82100
O291        O  0.71816893  0.60579165  0.94981054    -0.84700
C292        C  0.71209045  0.59416586  0.94971855     1.03000
O293        O  0.71718055  0.58805278  0.96065312    -0.77500
O294        O  0.73291798  0.59220831  0.89156931    -0.77700
C295        C  0.74167916  0.59852832  0.86571901     1.03000
O296        O  0.76424496  0.61377795  0.96337917    -0.85000
O297        O  0.76005920  0.63300541  0.97370563    -0.82000
C298        C  0.75716716  0.63249038  0.01373407     0.98500
O299        O  0.74697804  0.62397494  0.02733214    -0.82100
O300        O  0.72604727  0.60141810  0.03255659    -0.84700
C301        C  0.73104914  0.59559499  0.04708090     1.03000
O302        O  0.73687890  0.59251468  0.02132917    -0.77500
O303        O  0.75164671  0.59411967  0.95107754    -0.77600
C304        C  0.76223246  0.60290644  0.96135937     1.02900
Cr305      Cr  0.75439424  0.61917903  0.92965230     1.93700
Cr306      Cr  0.73285064  0.61478805  0.98759055     1.93200
Cr307      Cr  0.73506733  0.59285992  0.95636934     1.39100
O308        O  0.74078444  0.60893799  0.95767281    -1.22700
O309        O  0.58918089  0.54005106  0.46700090    -0.85000
O310        O  0.58569605  0.55485990  0.40696007    -0.82000
C311        C  0.59589652  0.56409748  0.41555502     0.98500
O312        O  0.60542205  0.56376845  0.40699049    -0.82100
O313        O  0.62069009  0.55579140  0.38245200    -0.84700
C314        C  0.62388854  0.54904693  0.40189661     1.03000
O315        O  0.61633051  0.53782586  0.40922162    -0.77500
O316        O  0.59494229  0.52608261  0.45812209    -0.77700
C317        C  0.59323371  0.53341887  0.48242619     1.03000
O318        O  0.57265109  0.51947479  0.41982248    -0.85000
O319        O  0.57409957  0.53506248  0.34989625    -0.82000
C320        C  0.57930043  0.54367956  0.32206729     0.98500
O321        O  0.59052175  0.55215745  0.32642632    -0.82100
O322        O  0.60640526  0.54452571  0.30564723    -0.84700
C323        C  0.60507989  0.53402443  0.29887555     1.03000
O324        O  0.60264581  0.52639662  0.32954142    -0.77500
O325        O  0.58183369  0.51373169  0.37446748    -0.77600
C326        C  0.57238201  0.51135852  0.39538744     1.02900
Cr327      Cr  0.58159889  0.53742400  0.40889383     1.93700
Cr328      Cr  0.60498628  0.55295118  0.35777694     1.93200
Cr329      Cr  0.59864866  0.52699545  0.39263752     1.39100
O330        O  0.59529319  0.53908061  0.38589472    -1.22700
O331        O  0.58914899  0.53451101  0.97990505    -0.85000
O332        O  0.58587454  0.55208967  0.93907338    -0.82000
C333        C  0.59639428  0.56141815  0.94382553     0.98500
O334        O  0.60551204  0.56165174  0.92618192    -0.82100
O335        O  0.61938924  0.55435748  0.87887936    -0.84700
C336        C  0.62320091  0.54817185  0.89890951     1.03000
O337        O  0.61588354  0.53731417  0.91099099    -0.77500
O338        O  0.59512804  0.52167650  0.95643310    -0.77700
C339        C  0.59381620  0.52784935  0.98701067     1.03000
O340        O  0.57195695  0.51631123  0.92197395    -0.85000
O341        O  0.57247928  0.53494394  0.87107139    -0.82000
C342        C  0.57670415  0.54502360  0.85080207     0.98500
O343        O  0.58789038  0.55337568  0.85470548    -0.82100
O344        O  0.60108452  0.54499003  0.81238634    -0.84700
C345        C  0.60229169  0.53610023  0.80004240     1.03000
O346        O  0.60291816  0.52883393  0.82739419    -0.77500
O347        O  0.58209789  0.51285071  0.87190055    -0.77600
C348        C  0.57240659  0.50937467  0.89327995     1.02900
Cr349      Cr  0.58096446  0.53461723  0.92546150     1.93700
Cr350      Cr  0.60281661  0.55232395  0.87030892     1.93200
Cr351      Cr  0.59861907  0.52613803  0.89194744     1.39100
O352        O  0.59426533  0.53764979  0.89556531    -1.22700
O353        O  0.61526506  0.75099280  0.14727319    -0.85000
O354        O  0.63413137  0.75529391  0.08733446    -0.82000
C355        C  0.63421550  0.74573890  0.09759849     0.98500
O356        O  0.62462008  0.73559228  0.09269224    -0.82100
O357        O  0.60190376  0.71809835  0.07425467    -0.84700
C358        C  0.59126834  0.71402695  0.08882945     1.03000
O359        O  0.58632910  0.72060721  0.08968581    -0.77500
O360        O  0.59489085  0.74227740  0.13899627    -0.77700
C361        C  0.60447786  0.74578978  0.16313059     1.03000
O362        O  0.60960916  0.76549220  0.09662603    -0.85000
O363        O  0.62403077  0.76391636  0.02695060    -0.82000
C364        C  0.62766224  0.75855418  0.00054582     0.98500
O365        O  0.62562057  0.74766724  0.00767344    -0.82100
O366        O  0.60239747  0.72906160  0.99214621    -0.84700
C367        C  0.59346613  0.73043128  0.98213054     1.03000
O368        O  0.58837865  0.73390468  0.00987066    -0.77500
O369        O  0.59407066  0.75432787  0.05501391    -0.77600
C370        C  0.60076899  0.76433215  0.07433748     1.02900
Cr371      Cr  0.61959453  0.75755908  0.08766688     1.93700
Cr372      Cr  0.61322547  0.73341481  0.04369077     1.93200
Cr373      Cr  0.59226590  0.73818870  0.07338252     1.39100
O374        O  0.60810867  0.74286663  0.06767026    -1.22700
O375        O  0.60995299  0.74720932  0.66720032    -0.85000
O376        O  0.63063761  0.74974393  0.62934909    -0.82000
C377        C  0.62864553  0.73885378  0.62673491     0.98500
O378        O  0.62010054  0.73098449  0.60304070    -0.82100
O379        O  0.60013134  0.72052642  0.54759247    -0.84700
C380        C  0.59077995  0.71615319  0.57184463     1.03000
O381        O  0.58794424  0.72320987  0.59142126    -0.77500
O382        O  0.59219816  0.74352415  0.63999474    -0.77700
C383        C  0.59878693  0.74384216  0.67218702     1.03000
O384        O  0.61116995  0.76629138  0.61345998    -0.85000
O385        O  0.63032012  0.76675248  0.56743770    -0.82000
C386        C  0.63625930  0.76287062  0.54611080     0.98500
O387        O  0.63264778  0.75148129  0.54473489    -0.82100
O388        O  0.61196581  0.74215614  0.49497798    -0.84700
C389        C  0.60146667  0.73973180  0.48248844     1.03000
O390        O  0.59292488  0.73704758  0.50998240    -0.77500
O391        O  0.59828402  0.75774402  0.55892854    -0.77600
C392        C  0.60453725  0.76688548  0.58366032     1.02900
Cr393      Cr  0.61970743  0.75661402  0.61661611     1.93700
Cr394      Cr  0.61564732  0.73686575  0.55003301     1.93200
Cr395      Cr  0.59404888  0.74069014  0.57540661     1.39100
O396        O  0.60970477  0.74468094  0.58057047    -1.22700
O397        O  0.53302398  0.59448519  0.02806874    -0.85000
O398        O  0.54916060  0.58979194  0.07050031    -0.82000
C399        C  0.55863216  0.60030215  0.07450199     0.98500
O400        O  0.55844704  0.60843577  0.09840159    -0.82100
O401        O  0.54877294  0.61994931  0.14976692    -0.84700
C402        C  0.54424836  0.62482116  0.12547559     1.03000
O403        O  0.53461748  0.61825474  0.10359066    -0.77500
O404        O  0.51908825  0.59888231  0.05048003    -0.77700
C405        C  0.52584018  0.59845780  0.02033565     1.03000
O406        O  0.51300828  0.57555476  0.07581992    -0.85000
O407        O  0.53001938  0.57322860  0.12760990    -0.82000
C408        C  0.53948251  0.57635910  0.15066491     0.98500
O409        O  0.54758988  0.58761104  0.15541235    -0.82100
O410        O  0.53646470  0.59773750  0.20161432    -0.84700
C411        C  0.52807584  0.59998278  0.21095105     1.03000
O412        O  0.52371060  0.60399248  0.18212148    -0.77500
O413        O  0.50879205  0.58409221  0.13010196    -0.77600
C414        C  0.50555182  0.57520064  0.10407671     1.02900
Cr415      Cr  0.53138225  0.58418472  0.07841930     1.93700
Cr416      Cr  0.54676486  0.60301997  0.14873496     1.93200
Cr417      Cr  0.52243357  0.60092259  0.11640564     1.39100
O418        O  0.53355940  0.59616387  0.11453488    -1.22700
O419        O  0.51989030  0.58509526  0.54199325    -0.85000
O420        O  0.54407505  0.59239318  0.55054469    -0.82000
C421        C  0.55498050  0.59767332  0.56407922     0.98500
O422        O  0.55750077  0.60194535  0.60264646    -0.82100
O423        O  0.55190731  0.62062872  0.59861766    -0.84700
C424        C  0.54611557  0.62636748  0.59978758     1.03000
O425        O  0.53517999  0.62112120  0.61457820    -0.77500
O426        O  0.52222622  0.60349502  0.55171970    -0.77700
C427        C  0.52002554  0.59455825  0.52685626     1.03000
O428        O  0.51583993  0.57432441  0.62864892    -0.85000
O429        O  0.53956154  0.57999683  0.63499958    -0.82000
C430        C  0.54284578  0.58409795  0.67378023     0.98500
O431        O  0.54472548  0.59459317  0.68430944    -0.82100
O432        O  0.54189552  0.61462716  0.68524646    -0.84700
C433        C  0.53164710  0.60889880  0.70433460     1.03000
O434        O  0.52202048  0.60233159  0.68207949    -0.77500
O435        O  0.50727853  0.58546998  0.61712252    -0.77600
C436        C  0.50640523  0.57527136  0.62752964     1.02900
Cr437      Cr  0.53007934  0.58397781  0.59084597     1.93700
Cr438      Cr  0.54795970  0.60730381  0.64070254     1.93200
Cr439      Cr  0.52240608  0.60277696  0.61659067     1.39100
O440        O  0.53342795  0.59796714  0.61587128    -1.22700
O441        O  0.72889495  0.81418729  0.22450394    -0.85000
O442        O  0.71270671  0.79018012  0.24038441    -0.82000
C443        C  0.70785599  0.77962033  0.25686087     0.98500
O444        O  0.71101331  0.77808558  0.29467534    -0.82100
O445        O  0.73549187  0.78446805  0.28729348    -0.84700
C446        C  0.74702458  0.79075535  0.28437091     1.03000
O447        O  0.75264299  0.80213186  0.29449843    -0.77500
O448        O  0.74486168  0.81164596  0.22714706    -0.77700
C449        C  0.73716521  0.81309819  0.20510401     1.03000
O450        O  0.72460813  0.82002909  0.31163501    -0.85000
O451        O  0.70657848  0.79626088  0.32460417    -0.82000
C452        C  0.70808279  0.79365014  0.36334569     0.98500
O453        O  0.71728723  0.79271311  0.37299018    -0.82100
O454        O  0.74091570  0.79745987  0.37033455    -0.84700
C455        C  0.74597589  0.80854694  0.38351842     1.03000
O456        O  0.74817837  0.81705519  0.35669541    -0.77500
O457        O  0.74350673  0.82871455  0.28812758    -0.77600
C458        C  0.73444214  0.82956071  0.30158227     1.02900
Cr459      Cr  0.71904791  0.80501158  0.27700114     1.93700
Cr460      Cr  0.72652798  0.78914886  0.32897567     1.93200
Cr461      Cr  0.74627868  0.81411619  0.29228893     1.39100
O462        O  0.73058980  0.80272502  0.29937557    -1.22700
O463        O  0.72520590  0.80371699  0.70112226    -0.85000
O464        O  0.70394552  0.78659301  0.73903324    -0.82000
C465        C  0.70496848  0.77713490  0.74206384     0.98500
O466        O  0.71293192  0.77708161  0.76685945    -0.82100
O467        O  0.73338385  0.78578343  0.82013961    -0.84700
C468        C  0.74255279  0.79000248  0.79476876     1.03000
O469        O  0.74601773  0.79996246  0.77459713    -0.77500
O470        O  0.74336818  0.81715532  0.72774370    -0.77700
C471        C  0.73656489  0.81076037  0.69601471     1.03000
O472        O  0.72571691  0.82266101  0.75593743    -0.85000
O473        O  0.70576582  0.80473515  0.80082723    -0.82000
C474        C  0.69922030  0.79504030  0.82234956     0.98500
O475        O  0.70220525  0.78684384  0.82532090    -0.82100
O476        O  0.72335078  0.79750113  0.87427989    -0.84700
C477        C  0.73429479  0.80490452  0.88539545     1.03000
O478        O  0.74273230  0.80955135  0.85683552    -0.77500
O479        O  0.73849891  0.82593910  0.80991362    -0.77600
C480        C  0.73242296  0.82935234  0.78701946     1.02900
Cr481      Cr  0.71596541  0.80430491  0.75191257     1.93700
Cr482      Cr  0.71858783  0.78790951  0.81931710     1.93200
Cr483      Cr  0.74141160  0.81235719  0.79196535     1.39100
O484        O  0.72537452  0.80153773  0.78776444    -1.22700
O485        O  0.80306580  0.72646820  0.32142728    -0.85000
O486        O  0.78684970  0.70676908  0.27209853    -0.82000
C487        C  0.77775794  0.70835392  0.27030645     0.98500
O488        O  0.77862470  0.71756694  0.25072957    -0.82100
O489        O  0.78910028  0.73994847  0.20734444    -0.84700
C490        C  0.79394898  0.74892146  0.23399293     1.03000
O491        O  0.80364178  0.75144145  0.25453565    -0.77500
O492        O  0.81785384  0.74524063  0.30488035    -0.77700
C493        C  0.81047951  0.73743842  0.33243910     1.03000
O494        O  0.82310045  0.72807229  0.27383841    -0.85000
O495        O  0.80636629  0.71066997  0.21548955    -0.82000
C496        C  0.79747174  0.70552854  0.18898775     0.98500
O497        O  0.78935297  0.70863296  0.18706192    -0.82100
O498        O  0.80087970  0.73094459  0.14930476    -0.84700
C499        C  0.80991722  0.74153548  0.14323755     1.03000
O500        O  0.81482359  0.74916323  0.17458164    -0.77500
O501        O  0.82854331  0.74210685  0.22360373    -0.77600
C502        C  0.83103363  0.73549235  0.24741562     1.02900
Cr503      Cr  0.80480996  0.71891852  0.26817739     1.93700
Cr504      Cr  0.79052117  0.72479589  0.20145683     1.93200
Cr505      Cr  0.81529168  0.74574408  0.23914525     1.39100
O506        O  0.80353537  0.72994091  0.23613856    -1.22700
O507        O  0.81535722  0.73405959  0.81441007    -0.85000
O508        O  0.79124588  0.71644825  0.79902424    -0.82000
C509        C  0.78088132  0.71050896  0.78077399     0.98500
O510        O  0.77941602  0.71286891  0.74173530    -0.82100
O511        O  0.78447218  0.73734801  0.74200485    -0.84700
C512        C  0.79049863  0.74900372  0.74183647     1.03000
O513        O  0.80186477  0.75465945  0.73231317    -0.77500
O514        O  0.81277549  0.74983594  0.80240994    -0.77700
C515        C  0.81495898  0.74335586  0.82832367     1.03000
O516        O  0.82179074  0.72778156  0.73174962    -0.85000
O517        O  0.79824275  0.70909063  0.71942862    -0.82000
C518        C  0.79584509  0.70958221  0.67940112     0.98500
O519        O  0.79426044  0.71813627  0.66565451    -0.82100
O520        O  0.79732211  0.74129147  0.66075021    -0.84700
C521        C  0.80824561  0.74638374  0.64700006     1.03000
O522        O  0.81698382  0.74947522  0.67365669    -0.77500
O523        O  0.82959534  0.74748375  0.74440870    -0.77600
C524        C  0.83100810  0.73845234  0.73475488     1.02900
Cr525      Cr  0.80643690  0.72267658  0.76409548     1.93700
Cr526      Cr  0.78986914  0.72784695  0.70512008     1.93200
Cr527      Cr  0.81449785  0.74922949  0.73795495     1.39100
O528        O  0.80358322  0.73323419  0.73600903    -1.22700
O529        O  0.93075609  0.74204536  0.32283234    -0.85000
O530        O  0.95092150  0.74854932  0.27022962    -0.82000
C531        C  0.95782656  0.74433613  0.26032473     0.98500
O532        O  0.95369631  0.73406206  0.24146244    -0.82100
O533        O  0.93917853  0.71172553  0.27817217    -0.84700
C534        C  0.92991818  0.70252449  0.29381236     1.03000
O535        O  0.91973112  0.70195871  0.29228578    -0.77500
O536        O  0.92534946  0.72288071  0.34102378    -0.77700
C537        C  0.92985880  0.73413662  0.35095772     1.03000
O538        O  0.91610780  0.73851770  0.24169406    -0.85000
O539        O  0.93625049  0.74471056  0.19232118    -0.82000
C540        C  0.93664004  0.73784555  0.16279389     0.98500
O541        O  0.93641635  0.72796546  0.17178656    -0.82100
O542        O  0.92153323  0.70525143  0.20652167    -0.84700
C543        C  0.91024269  0.70214909  0.20741004     1.03000
O544        O  0.90638747  0.70747770  0.23281132    -0.77500
O545        O  0.90771119  0.72523724  0.29364702    -0.77600
C546        C  0.90707516  0.73226281  0.26617335     1.02900
Cr547      Cr  0.93312614  0.74208628  0.25682985     1.93700
Cr548      Cr  0.93704783  0.72033737  0.22689636     1.93200
Cr549      Cr  0.91593514  0.71543443  0.28720068     1.39100
O550        O  0.92888094  0.72613388  0.25636739    -1.22700
O551        O  0.92852399  0.74315300  0.82135541    -0.85000
O552        O  0.94942957  0.74766586  0.77708182    -0.82000
C553        C  0.95595780  0.74348037  0.76232355     0.98500
O554        O  0.95128119  0.73373467  0.73962040    -0.82100
O555        O  0.93508988  0.71136142  0.77757043    -0.84700
C556        C  0.92524942  0.70249755  0.79193071     1.03000
O557        O  0.91548909  0.70284129  0.78931810    -0.77500
O558        O  0.92114607  0.72354277  0.83766282    -0.77700
C559        C  0.92652680  0.73474215  0.84880422     1.03000
O560        O  0.91693390  0.74200205  0.73515531    -0.85000
O561        O  0.93798626  0.74675855  0.69396471    -0.82000
C562        C  0.93711166  0.73954706  0.66332105     0.98500
O563        O  0.93435987  0.72859096  0.67051764    -0.82100
O564        O  0.91846232  0.70601119  0.70387114    -0.84700
C565        C  0.90750933  0.70390873  0.70205979     1.03000
O566        O  0.90397856  0.70974880  0.72601531    -0.77500
O567        O  0.90571038  0.72805695  0.78272075    -0.77600
C568        C  0.90676140  0.73559812  0.75375410     1.02900
Cr569      Cr  0.93265825  0.74350559  0.75686288     1.93700
Cr570      Cr  0.93421543  0.72054977  0.72553158     1.93200
Cr571      Cr  0.91276986  0.71703399  0.78178191     1.39100
O572        O  0.92669281  0.72717255  0.75423756    -1.22700
O573        O  0.07446463  0.81609844  0.24838499    -0.85000
O574        O  0.05389348  0.80216900  0.29838994    -0.82000
C575        C  0.04655642  0.79204724  0.31629730     0.98500
O576        O  0.05038368  0.78681183  0.34193947    -0.82100
O577        O  0.06222800  0.77628598  0.30102284    -0.84700
C578        C  0.07052298  0.77543994  0.28137988     1.03000
O579        O  0.08117103  0.78460647  0.27906724    -0.77500
O580        O  0.07720409  0.80069118  0.22938874    -0.77700
C581        C  0.07453925  0.80881128  0.21951525     1.03000
O582        O  0.08863845  0.82649637  0.32906986    -0.85000
O583        O  0.06765215  0.81327068  0.37821808    -0.82000
C584        C  0.06971343  0.80791980  0.40936907     0.98500
O585        O  0.07074580  0.79863676  0.40277856    -0.82100
O586        O  0.08193136  0.78771922  0.36583554    -0.84700
C587        C  0.09321501  0.79589094  0.36322625     1.03000
O588        O  0.09705847  0.80417110  0.33431497    -0.77500
O589        O  0.09626378  0.82067279  0.27661461    -0.77600
C590        C  0.09752023  0.82856953  0.30468164     1.02900
Cr591      Cr  0.07141984  0.81352947  0.31373943     1.93700
Cr592      Cr  0.06686408  0.78841006  0.35000591     1.93200
Cr593      Cr  0.08691592  0.80246444  0.28240979     1.39100
O594        O  0.07493213  0.80144524  0.31567970    -1.22700
O595        O  0.06719847  0.81365485  0.75224626    -0.85000
O596        O  0.05147544  0.80217042  0.82103202    -0.82000
C597        C  0.04521091  0.79121561  0.80655167     0.98500
O598        O  0.05023492  0.78481766  0.80088868    -0.82100
O599        O  0.06802194  0.77797883  0.79422560    -0.84700
C600        C  0.07190950  0.78026866  0.75530701     1.03000
O601        O  0.07732311  0.79116695  0.74155379    -0.77500
O602        O  0.08517538  0.81575975  0.73733298    -0.77700
C603        C  0.07542340  0.81543409  0.72492648     1.03000
O604        O  0.08723592  0.82863042  0.81240209    -0.85000
O605        O  0.07193754  0.81467375  0.88154101    -0.82000
C606        C  0.06520326  0.80525131  0.90433521     0.98500
O607        O  0.05931788  0.79473988  0.88642507    -0.82100
O608        O  0.07824395  0.79029182  0.87498169    -0.84700
C609        C  0.08815039  0.79154782  0.86029248     1.03000
O610        O  0.09147543  0.79513670  0.82132535    -0.77500
O611        O  0.09789935  0.81938834  0.81924037    -0.77600
C612        C  0.09741168  0.82912963  0.81919599     1.02900
Cr613      Cr  0.06981213  0.81401419  0.81659141     1.93700
Cr614      Cr  0.06459324  0.78801397  0.83705341     1.93200
Cr615      Cr  0.08697001  0.80517063  0.78211617     1.39100
O616        O  0.07385137  0.80241885  0.81195051    -1.22700
O617        O  0.91484886  0.51805522  0.47262921    -0.85000
O618        O  0.91197366  0.53109745  0.40592808    -0.82000
C619        C  0.91824641  0.54232905  0.41802174     0.98500
O620        O  0.92981858  0.54764084  0.41998879    -0.82100
O621        O  0.95339835  0.55111919  0.42529538    -0.84700
C622        C  0.95487823  0.54872858  0.46432490     1.03000
O623        O  0.94793145  0.53815799  0.47982395    -0.77500
O624        O  0.92942921  0.51383250  0.48510800    -0.77700
C625        C  0.92074738  0.51520139  0.49887653     1.03000
O626        O  0.91730873  0.50183974  0.40944159    -0.85000
O627        O  0.91680394  0.51650217  0.34228347    -0.82000
C628        C  0.92069845  0.52598810  0.31870300     0.98500
O629        O  0.92660553  0.53655727  0.33599250    -0.82100
O630        O  0.94894134  0.53765290  0.34521967    -0.84700
C631        C  0.95724871  0.53610640  0.36170151     1.03000
O632        O  0.95660187  0.53278353  0.40111193    -0.77500
O633        O  0.93710765  0.50930167  0.40210703    -0.77600
C634        C  0.92628655  0.50033650  0.39997821     1.02900
Cr635      Cr  0.91635070  0.51756399  0.40773226     1.93700
Cr636      Cr  0.93914574  0.54217260  0.38371303     1.93200
Cr637      Cr  0.94196841  0.52376393  0.43992287     1.39100
O638        O  0.93245740  0.52782710  0.41060540    -1.22700
O639        O  0.91918357  0.51397422  0.97324667    -0.85000
O640        O  0.91538399  0.53049996  0.92526665    -0.82000
C641        C  0.91859730  0.54027832  0.90401905     0.98500
O642        O  0.92725561  0.54414209  0.87646240    -0.82100
O643        O  0.94942778  0.55424112  0.92124035    -0.84700
C644        C  0.95784936  0.55451236  0.94443775     1.03000
O645        O  0.95828509  0.54483483  0.95092172    -0.77500
O646        O  0.93750215  0.52834031  0.99527306    -0.77700
C647        C  0.92640453  0.52073646  0.00345867     1.03000
O648        O  0.92272146  0.50420033  0.89105827    -0.85000
O649        O  0.91688756  0.51934906  0.84410443    -0.82000
C650        C  0.92480376  0.52308785  0.81388697     0.98500
O651        O  0.93577950  0.53110480  0.82142562    -0.82100
O652        O  0.95782890  0.54249189  0.86165841    -0.84700
C653        C  0.96106921  0.53456775  0.86701233     1.03000
O654        O  0.95549291  0.52577132  0.89347959    -0.77500
O655        O  0.93626708  0.50849630  0.94309079    -0.77600
C656        C  0.92937101  0.50133003  0.91318874     1.02900
Cr657      Cr  0.91981871  0.51788847  0.90849049     1.93700
Cr658      Cr  0.94193653  0.54192057  0.87297656     1.93200
Cr659      Cr  0.94598734  0.52696331  0.94317760     1.39100
O660        O  0.93590061  0.52899213  0.90828644    -1.22700
O661        O  0.85522817  0.58884900  0.40914080    -0.85000
O662        O  0.86346124  0.58269530  0.48270804    -0.82000
C663        C  0.87492259  0.58758521  0.47560493     0.98500
O664        O  0.88189914  0.59913581  0.47872547    -0.82100
O665        O  0.88946371  0.62431072  0.47922261    -0.84700
C666        C  0.88961230  0.62692401  0.43916963     1.03000
O667        O  0.87991699  0.62137016  0.41683207    -0.77500
O668        O  0.85585858  0.60615351  0.39278779    -0.77700
C669        C  0.85492799  0.59605906  0.38107137     1.03000
O670        O  0.83870967  0.59355756  0.46116566    -0.85000
O671        O  0.84864589  0.58962188  0.53730778    -0.82000
C672        C  0.85649795  0.59107538  0.56614274     0.98500
O673        O  0.86763248  0.59570307  0.55554503    -0.82100
O674        O  0.87263179  0.61977121  0.54858636    -0.84700
C675        C  0.87295705  0.62918354  0.53260246     1.03000
O676        O  0.87213084  0.63015064  0.49146413    -0.77500
O677        O  0.84832788  0.61365521  0.46912362    -0.77600
C678        C  0.83849794  0.60351129  0.46485536     1.02900
Cr679      Cr  0.85235618  0.58980805  0.47314559     1.93700
Cr680      Cr  0.87696411  0.60937958  0.51265740     1.93200
Cr681      Cr  0.86411129  0.61692242  0.44500077     1.39100
O682        O  0.86439452  0.60535220  0.47679485    -1.22700
O683        O  0.85410923  0.58706728  0.90880340    -0.85000
O684        O  0.86366780  0.58007777  0.97801266    -0.82000
C685        C  0.87496295  0.58494931  0.96826674     0.98500
O686        O  0.88180618  0.59653150  0.96899296    -0.82100
O687        O  0.88910355  0.62166004  0.97090620    -0.84700
C688        C  0.88773841  0.62470457  0.93264835     1.03000
O689        O  0.87729950  0.61940487  0.91477510    -0.77500
O690        O  0.85265351  0.60361116  0.90041002    -0.77700
C691        C  0.85251034  0.59423677  0.88424253     1.03000
O692        O  0.83837253  0.59076384  0.96912107    -0.85000
O693        O  0.85010520  0.58662419  0.03884746    -0.82000
C694        C  0.85861241  0.58843373  0.06525002     0.98500
O695        O  0.86955480  0.59314946  0.05178054    -0.82100
O696        O  0.87494773  0.61730009  0.04855604    -0.84700
C697        C  0.87471179  0.62672173  0.03588756     1.03000
O698        O  0.87214431  0.62761466  0.99635734    -0.77500
O699        O  0.84795075  0.61037106  0.98590925    -0.77600
C700        C  0.83810543  0.60027223  0.98161766     1.02900
Cr701      Cr  0.85239931  0.58720563  0.97398838     1.93700
Cr702      Cr  0.87786304  0.60680614  0.00755094     1.93200
Cr703      Cr  0.86261469  0.61433518  0.95127177     1.39100
O704        O  0.86432129  0.60279327  0.97746025    -1.22700
O705        O  0.14752789  0.73781648  0.15696417    -0.85000
O706        O  0.12971325  0.71615597  0.12049067    -0.82000
C707        C  0.11896486  0.70878528  0.10733120     0.98500
O708        O  0.11321988  0.71257439  0.08450929    -0.82100
O709        O  0.10739368  0.72724441  0.13497658    -0.84700
C710        C  0.10832444  0.73668010  0.15321271     1.03000
O711        O  0.11752388  0.74719633  0.14599882    -0.77500
O712        O  0.13703891  0.74639273  0.18106242    -0.77700
C713        C  0.14378220  0.74183375  0.18811042     1.03000
O714        O  0.15430869  0.74821489  0.06837560    -0.85000
O715        O  0.13637126  0.72650132  0.03214156    -0.82000
C716        C  0.12930497  0.72764762  0.00512601     0.98500
O717        O  0.12154639  0.73048083  0.01769611    -0.82100
O718        O  0.11339919  0.74374466  0.06258769    -0.84700
C719        C  0.12149948  0.75474776  0.05443000     1.03000
O720        O  0.13220150  0.75918190  0.06965734    -0.77500
O721        O  0.15226760  0.76086181  0.11197789    -0.77600
C722        C  0.15829122  0.75888205  0.08365473     1.02900
Cr723      Cr  0.14107967  0.73263264  0.09486942     1.93700
Cr724      Cr  0.11522195  0.72920331  0.07694558     1.93200
Cr725      Cr  0.13445072  0.75218712  0.12489530     1.39100
O726        O  0.13033320  0.73791901  0.09902518    -1.22700
O727        O  0.14154203  0.73509423  0.65991129    -0.85000
O728        O  0.12560708  0.71608146  0.60502084    -0.82000
C729        C  0.11613383  0.71004619  0.58153424     0.98500
O730        O  0.11281712  0.71549659  0.55468797    -0.82100
O731        O  0.10304137  0.72722204  0.60245671    -0.84700
C732        C  0.10278342  0.73532251  0.62604047     1.03000
O733        O  0.11250519  0.74534656  0.63441848    -0.77500
O734        O  0.12735759  0.73930441  0.68043507    -0.77700
C735        C  0.13467683  0.73557711  0.68943712     1.03000
O736        O  0.15290731  0.74999214  0.58154455    -0.85000
O737        O  0.13815143  0.73033973  0.52803700    -0.82000
C738        C  0.13505764  0.73542828  0.49890104     0.98500
O739        O  0.12705811  0.73830821  0.50659759    -0.82100
O740        O  0.11593025  0.74877991  0.54917407    -0.84700
C741        C  0.12434107  0.75975681  0.55694486     1.03000
O742        O  0.13294011  0.76207647  0.58340722    -0.77500
O743        O  0.14846244  0.75817478  0.63650153    -0.77600
C744        C  0.15604009  0.75872266  0.60833796     1.02900
Cr745      Cr  0.13873218  0.73325869  0.59365165     1.93700
Cr746      Cr  0.11569191  0.73277969  0.55598151     1.93200
Cr747      Cr  0.13019648  0.75031381  0.63094751     1.39100
O748        O  0.12812911  0.73865910  0.59358429    -1.22700
O749        O  0.07251854  0.60004045  0.07365168    -0.85000
O750        O  0.07623998  0.61328212  0.14989246    -0.82000
C751        C  0.07054257  0.61908438  0.14325384     0.98500
O752        O  0.05896013  0.61333775  0.14165300    -0.82100
O753        O  0.03484071  0.59424116  0.13244595    -0.84700
C754        C  0.03299630  0.59205894  0.09180510     1.03000
O755        O  0.03935251  0.58867108  0.07053102    -0.77500
O756        O  0.05701512  0.58228279  0.05192157    -0.77700
C757        C  0.06661467  0.59241208  0.04350506     1.03000
O758        O  0.06898727  0.57867905  0.12270454    -0.85000
O759        O  0.07023630  0.59102325  0.19929541    -0.82000
C760        C  0.06742465  0.59630731  0.22830973     0.98500
O761        O  0.06180657  0.60187886  0.21789585    -0.82100
O762        O  0.03877706  0.58163634  0.20228859    -0.84700
C763        C  0.03003645  0.57265602  0.18241526     1.03000
O764        O  0.03044196  0.57136780  0.14136931    -0.77500
O765        O  0.04900998  0.56650367  0.12654455    -0.77600
C766        C  0.05963449  0.56794476  0.12537382     1.02900
Cr767      Cr  0.07083670  0.59537530  0.13640178     1.93700
Cr768      Cr  0.04909162  0.59729003  0.17083083     1.93200
Cr769      Cr  0.04479185  0.57816901  0.10026049     1.39100
O770        O  0.05491829  0.59025953  0.13565282    -1.22700
O771        O  0.07467831  0.60185587  0.57326251    -0.85000
O772        O  0.07871408  0.61543499  0.64878464    -0.82000
C773        C  0.07308787  0.62116401  0.64001932     0.98500
O774        O  0.06148548  0.61547264  0.63943970    -0.82100
O775        O  0.03732823  0.59581565  0.63184518    -0.84700
C776        C  0.03537441  0.59292583  0.59161904     1.03000
O777        O  0.04200517  0.58973638  0.57136559    -0.77500
O778        O  0.05967940  0.58346128  0.55468418    -0.77700
C779        C  0.06876698  0.59377894  0.54436471     1.03000
O780        O  0.07198983  0.58115791  0.62355487    -0.85000
O781        O  0.07322448  0.59369701  0.69934055    -0.82000
C782        C  0.07027272  0.59886456  0.72838360     0.98500
O783        O  0.06466841  0.60448445  0.71793120    -0.82100
O784        O  0.04151205  0.58410032  0.70403387    -0.84700
C785        C  0.03288944  0.57468715  0.68540763     1.03000
O786        O  0.03319849  0.57306891  0.64451582    -0.77500
O787        O  0.05221767  0.56878211  0.63231955    -0.77600
C788        C  0.06291356  0.57045701  0.62980252     1.02900
Cr789      Cr  0.07354166  0.59767177  0.63635842     1.93700
Cr790      Cr  0.05175317  0.59954306  0.67071717     1.93200
Cr791      Cr  0.04755534  0.57972022  0.60316204     1.39100
O792        O  0.05760218  0.59229306  0.63670857    -1.22700
O793        O  0.81067063  0.07236964  0.29236458    -0.85000
O794        O  0.79507730  0.05077630  0.24950062    -0.82000
C795        C  0.78381790  0.04358636  0.24248925     0.98500
O796        O  0.77740661  0.04707868  0.22238976    -0.82100
O797        O  0.77105461  0.06280207  0.25880047    -0.84700
C798        C  0.77165522  0.07253236  0.27238539     1.03000
O799        O  0.78129713  0.08271023  0.26641007    -0.77500
O800        O  0.79941975  0.08068727  0.31125056    -0.77700
C801        C  0.80625006  0.07638435  0.32129600     1.03000
O802        O  0.81988495  0.08368422  0.20632606    -0.85000
O803        O  0.80381803  0.06277560  0.16447770    -0.82000
C804        C  0.79618500  0.06226841  0.13618736     0.98500
O805        O  0.78678485  0.06269868  0.14712415    -0.82100
O806        O  0.77947457  0.07792989  0.18091032    -0.84700
C807        C  0.78777743  0.08906751  0.17560279     1.03000
O808        O  0.79784451  0.09368357  0.19606656    -0.77500
O809        O  0.81665199  0.09565489  0.24872058    -0.77600
C810        C  0.82355408  0.09401197  0.22365898     1.02900
Cr811      Cr  0.80627039  0.06777041  0.22827976     1.93700
Cr812      Cr  0.78006714  0.06336499  0.20442612     1.93200
Cr813      Cr  0.79849286  0.08679024  0.25331278     1.39100
O814        O  0.79496628  0.07247728  0.22862342    -1.22700
O815        O  0.80708932  0.07244218  0.79410848    -0.85000
O816        O  0.79206479  0.05189620  0.74447350    -0.82000
C817        C  0.78301781  0.04495173  0.72038277     0.98500
O818        O  0.77968223  0.04941514  0.68978078    -0.82100
O819        O  0.76859865  0.06128968  0.72865391    -0.84700
C820        C  0.76773946  0.06953559  0.74918003     1.03000
O821        O  0.77701266  0.08011342  0.75461152    -0.77500
O822        O  0.79242081  0.07655544  0.80737478    -0.77700
C823        C  0.79949541  0.07286655  0.82028151     1.03000
O824        O  0.81880450  0.08551051  0.71341177    -0.85000
O825        O  0.80487408  0.06433577  0.66479885    -0.82000
C826        C  0.80154452  0.06808000  0.63188182     0.98500
O827        O  0.79328812  0.07082786  0.63522864    -0.82100
O828        O  0.78092044  0.08134308  0.66797385    -0.84700
C829        C  0.78881516  0.09266106  0.67247769     1.03000
O830        O  0.79714716  0.09627699  0.70124151    -0.77500
O831        O  0.81323514  0.09507797  0.75972892    -0.77600
C832        C  0.82116564  0.09511114  0.73443556     1.02900
Cr833      Cr  0.80484406  0.06892122  0.72863801     1.93700
Cr834      Cr  0.78159372  0.06620841  0.68345700     1.93200
Cr835      Cr  0.79494393  0.08604037  0.75347734     1.39100
O836        O  0.79379584  0.07369091  0.72175697    -1.22700
O837        O  0.74212489  0.92822671  0.22943850    -0.85000
O838        O  0.74579787  0.94857048  0.27645112    -0.82000
C839        C  0.74310075  0.95538395  0.29821152     0.98500
O840        O  0.73404842  0.95076256  0.32412809    -0.82100
O841        O  0.71268428  0.93912220  0.27368494    -0.84700
C842        C  0.70423868  0.93095964  0.25007916     1.03000
O843        O  0.70321375  0.92048338  0.24537887    -0.77500
O844        O  0.72388510  0.92363946  0.20494291    -0.77700
C845        C  0.73506147  0.92733430  0.19821375     1.03000
O846        O  0.73787812  0.91516450  0.31103397    -0.85000
O847        O  0.74298490  0.93599327  0.35836640    -0.82000
C848        C  0.73478600  0.93216850  0.38772383     0.98500
O849        O  0.72386512  0.92899365  0.37821689    -0.82100
O850        O  0.70223223  0.91898653  0.33248863    -0.84700
C851        C  0.69838812  0.90760340  0.32828878     1.03000
O852        O  0.70450688  0.90396100  0.30673672    -0.77500
O853        O  0.72406519  0.90522832  0.25991012    -0.77600
C854        C  0.73182787  0.90574265  0.28745163     1.02900
Cr855      Cr  0.74086361  0.93158043  0.29369658     1.93700
Cr856      Cr  0.71882702  0.93396050  0.32466562     1.93200
Cr857      Cr  0.71479615  0.91428823  0.25694326     1.39100
O858        O  0.72486065  0.92663712  0.29170112    -1.22700
O859        O  0.74008022  0.93325635  0.72870563    -0.85000
O860        O  0.74687870  0.95044687  0.79649188    -0.82000
C861        C  0.74174592  0.95653570  0.78558448     0.98500
O862        O  0.73017487  0.95142329  0.78538869    -0.82100
O863        O  0.70529326  0.93335514  0.78939543    -0.84700
C864        C  0.70255974  0.92913954  0.75077469     1.03000
O865        O  0.70778467  0.92388282  0.73374337    -0.77500
O866        O  0.72346503  0.91512020  0.72120746    -0.77700
C867        C  0.73263755  0.92436486  0.70459478     1.03000
O868        O  0.73676854  0.91433781  0.79107425    -0.85000
O869        O  0.74103833  0.93090358  0.85960726    -0.82000
C870        C  0.73894455  0.93773185  0.88432265     0.98500
O871        O  0.73410050  0.94358038  0.86866108    -0.82100
O872        O  0.71021015  0.92425823  0.86799786    -0.84700
C873        C  0.70107376  0.91420146  0.85552752     1.03000
O874        O  0.70001095  0.91081244  0.81585163    -0.77500
O875        O  0.71706442  0.90381839  0.80526916    -0.77600
C876        C  0.72719949  0.90427238  0.80119376     1.02900
Cr877      Cr  0.74011294  0.93194903  0.79422206     1.93700
Cr878      Cr  0.72029354  0.93750012  0.82558337     1.93200
Cr879      Cr  0.71296855  0.91445731  0.77097284     1.39100
O880        O  0.72445940  0.92791929  0.79698517    -1.22700
O881        O  0.58736600  0.85310066  0.13654518    -0.85000
O882        O  0.58314159  0.86887704  0.08635380    -0.82000
C883        C  0.58713258  0.87980311  0.07342683     0.98500
O884        O  0.59737820  0.88577107  0.05442225    -0.82100
O885        O  0.61804165  0.89439410  0.10518151    -0.84700
C886        C  0.62655485  0.89458052  0.12723805     1.03000
O887        O  0.62704192  0.88490335  0.13119827    -0.77500
O888        O  0.60467205  0.86754286  0.16666862    -0.77700
C889        C  0.59350233  0.85932674  0.16969171     1.03000
O890        O  0.59443290  0.84501538  0.05730622    -0.85000
O891        O  0.58903207  0.86014407  0.00774790    -0.82000
C892        C  0.59725207  0.86704214  0.98093123     0.98500
O893        O  0.60747114  0.87571537  0.99396636    -0.82100
O894        O  0.62831445  0.88473297  0.04326094    -0.84700
C895        C  0.63173415  0.87689658  0.04819524     1.03000
O896        O  0.62560638  0.86731847  0.07105672    -0.77500
O897        O  0.60546092  0.84902967  0.11652435    -0.77600
C898        C  0.59986271  0.84193398  0.08486992     1.02900
Cr899      Cr  0.58981782  0.85777843  0.07253330     1.93700
Cr900      Cr  0.61212762  0.88388223  0.05152341     1.93200
Cr901      Cr  0.61480881  0.86734061  0.11828648     1.39100
O902        O  0.60550311  0.86969680  0.08027775    -1.22700
O903        O  0.59101209  0.85674056  0.63797851    -0.85000
O904        O  0.58400299  0.87044637  0.58799686    -0.82000
C905        C  0.58741088  0.88072348  0.57016211     0.98500
O906        O  0.59652949  0.88561614  0.54495157    -0.82100
O907        O  0.61967112  0.89416815  0.57741326    -0.84700
C908        C  0.62906231  0.89425537  0.59158339     1.03000
O909        O  0.62958089  0.88456696  0.59041495    -0.77500
O910        O  0.61064342  0.87062695  0.64759358    -0.77700
C911        C  0.59989360  0.86422357  0.66255202     1.03000
O912        O  0.59097419  0.84377533  0.55589644    -0.85000
O913        O  0.58374020  0.85763408  0.50970403    -0.82000
C914        C  0.58982862  0.86344031  0.47637551     0.98500
O915        O  0.60067287  0.87230284  0.47908253    -0.82100
O916        O  0.62400977  0.88101731  0.50650067    -0.84700
C917        C  0.62645950  0.87236658  0.50664596     1.03000
O918        O  0.62204509  0.86405323  0.53570896    -0.77500
O919        O  0.60590829  0.84919320  0.60208420    -0.77600
C920        C  0.59796849  0.84121639  0.57694710     1.02900
Cr921      Cr  0.58877053  0.85801402  0.57235576     1.93700
Cr922      Cr  0.60977434  0.88218329  0.53006193     1.93200
Cr923      Cr  0.61600610  0.86718137  0.59171700     1.39100
O924        O  0.60466782  0.86910174  0.56420093    -1.22700
O925        O  0.51072025  0.91924059  0.05694111    -0.85000
O926        O  0.52757679  0.91579467  0.10320044    -0.82000
C927        C  0.53763319  0.91906145  0.12246664     0.98500
O928        O  0.54225488  0.92820156  0.14854035    -0.82100
O929        O  0.55151200  0.94929619  0.09858222    -0.84700
C930        C  0.55163121  0.95759586  0.07519070     1.03000
O931        O  0.54214431  0.95849114  0.07142659    -0.77500
O932        O  0.52476348  0.93721336  0.03113073    -0.77700
C933        C  0.51686987  0.92603013  0.02505774     1.03000
O934        O  0.50251333  0.92433447  0.13994664    -0.85000
O935        O  0.51839237  0.91907852  0.18567877    -0.82000
C936        C  0.52309417  0.92743233  0.21480202     0.98500
O937        O  0.53085969  0.93833364  0.20471866    -0.82100
O938        O  0.54175598  0.95969030  0.15813193    -0.84700
C939        C  0.53385152  0.96301265  0.15439316     1.03000
O940        O  0.52413906  0.95663059  0.13244244    -0.77500
O941        O  0.50610005  0.93681523  0.08510883    -0.77600
C942        C  0.49910213  0.93007501  0.11522593     1.02900
Cr943      Cr  0.51566430  0.92085602  0.12126101     1.93700
Cr944      Cr  0.54047721  0.94324273  0.15019218     1.93200
Cr945      Cr  0.52442337  0.94647974  0.08273590     1.39100
O946        O  0.52690120  0.93681009  0.11800015    -1.22700
O947        O  0.51507102  0.91911331  0.55510813    -0.85000
O948        O  0.52633941  0.91353576  0.62236767    -0.82000
C949        C  0.53746362  0.91920986  0.61050579     0.98500
O950        O  0.54336691  0.93081370  0.60916048    -0.82100
O951        O  0.54865647  0.95511157  0.61091574    -0.84700
C952        C  0.54613169  0.95745445  0.57326956     1.03000
O953        O  0.53521398  0.95201095  0.55952641    -0.77500
O954        O  0.51120320  0.93422243  0.55012034    -0.77700
C955        C  0.51276186  0.92604996  0.53197684     1.03000
O956        O  0.49865353  0.92052355  0.61818626    -0.85000
O957        O  0.51233663  0.91835239  0.68581819    -0.82000
C958        C  0.52154091  0.92129079  0.71034035     0.98500
O959        O  0.53229146  0.92687958  0.69458870    -0.82100
O960        O  0.53577601  0.95010308  0.69238280    -0.84700
C961        C  0.53372485  0.95856280  0.68169155     1.03000
O962        O  0.53011428  0.95902013  0.64339173    -0.77500
O963        O  0.50635080  0.93983999  0.63689713    -0.77600
C964        C  0.49720127  0.92914966  0.63265342     1.02900
Cr965      Cr  0.51383837  0.91898060  0.62054533     1.93700
Cr966      Cr  0.53897072  0.94030963  0.64954098     1.93200
Cr967      Cr  0.52098679  0.94549275  0.59933320     1.39100
O968        O  0.52463865  0.93498546  0.62315967    -1.22700
O969        O  0.58583951  0.07099528  0.46158828    -0.85000
O970        O  0.60672937  0.07783057  0.41242905    -0.82000
C971        C  0.61336252  0.07365404  0.39858325     0.98500
O972        O  0.60887545  0.06400372  0.37540307    -0.82100
O973        O  0.59239397  0.04070500  0.40346542    -0.84700
C974        C  0.58247757  0.03138745  0.41453221     1.03000
O975        O  0.57274371  0.03171736  0.41295519    -0.77500
O976        O  0.57881252  0.05108519  0.47189228    -0.77700
C977        C  0.58360562  0.06199479  0.48668801     1.03000
O978        O  0.57330353  0.07145724  0.37953246    -0.85000
O979        O  0.59405334  0.07791086  0.33348594    -0.82000
C980        C  0.59445551  0.07191478  0.30082777     0.98500
O981        O  0.59300648  0.06129970  0.30455645    -0.82100
O982        O  0.57635440  0.03810574  0.32962640    -0.84700
C983        C  0.56529030  0.03579145  0.32906910     1.03000
O984        O  0.56138414  0.04033610  0.35771315    -0.77500
O985        O  0.56310581  0.05673201  0.42549717    -0.77600
C986        C  0.56380143  0.06519554  0.40186138     1.02900
Cr987      Cr  0.58948282  0.07314770  0.39622949     1.93700
Cr988      Cr  0.59200413  0.05153350  0.35621467     1.93200
Cr989      Cr  0.57026686  0.04605514  0.41477267     1.39100
O990        O  0.58409425  0.05709116  0.38849565    -1.22700
O991        O  0.58734932  0.07350614  0.95854655    -0.85000
O992        O  0.60742143  0.07697896  0.91108333    -0.82000
C993        C  0.61453553  0.07337520  0.89741843     0.98500
O994        O  0.61034713  0.06308452  0.87828476    -0.82100
O995        O  0.59922908  0.04358608  0.93575031    -0.84700
C996        C  0.59118925  0.03557581  0.96034952     1.03000
O997        O  0.58070766  0.03442281  0.96257254    -0.77500
O998        O  0.58457711  0.05685466  0.99275091    -0.77700
C999        C  0.58738489  0.06801387  0.99345352     1.03000
O1000       O  0.57234041  0.06476491  0.87887304    -0.85000
O1001       O  0.59305655  0.06954574  0.83043230    -0.82000
C1002       C  0.59131566  0.06065912  0.80568112     0.98500
O1003       O  0.58944383  0.05064467  0.82159082    -0.82100
O1004       O  0.57895066  0.03095346  0.87631712    -0.84700
C1005       C  0.56762184  0.02735442  0.87933975     1.03000
O1006       O  0.56395147  0.03372753  0.89921074    -0.77500
O1007       O  0.56510660  0.05420427  0.93890554    -0.77600
C1008       C  0.56371545  0.05941897  0.90610686     1.02900
Cr1009     Cr  0.58974415  0.06993168  0.89544005     1.93700
Cr1010     Cr  0.59389377  0.04775146  0.88015491     1.93200
Cr1011     Cr  0.57456378  0.04560420  0.94520369     1.39100
O1012       O  0.58615750  0.05450903  0.90658903    -1.22700
O1013       O  0.72332449  0.14094750  0.38393369    -0.85000
O1014       O  0.70910324  0.13241492  0.45839742    -0.82000
C1015       C  0.70267874  0.12084463  0.45165621     0.98500
O1016       O  0.70775355  0.11435216  0.45150360    -0.82100
O1017       O  0.72633751  0.10797899  0.45072778    -0.84700
C1018       C  0.72950619  0.10821252  0.41125322     1.03000
O1019       O  0.73306549  0.11783619  0.38907593    -0.77500
O1020       O  0.74074546  0.14193665  0.36712548    -0.77700
C1021       C  0.73100915  0.14177974  0.35569847     1.03000
O1022       O  0.74450290  0.15846126  0.43523310    -0.85000
O1023       O  0.73116537  0.14802502  0.51086817    -0.82000
C1024       C  0.72516457  0.14001526  0.53952462     0.98500
O1025       O  0.71858764  0.12883423  0.52852667    -0.82100
O1026       O  0.73804387  0.12479836  0.52123983    -0.84700
C1027       C  0.74742591  0.12512773  0.50529328     1.03000
O1028       O  0.74933710  0.12621300  0.46430140    -0.77500
O1029       O  0.75560136  0.14976674  0.44509322    -0.77600
C1030       C  0.75487249  0.15932435  0.44127023     1.02900
Cr1031     Cr  0.72731540  0.14417111  0.44740482     1.93700
Cr1032     Cr  0.72319127  0.11987679  0.48512028     1.93200
Cr1033     Cr  0.74371156  0.13384940  0.41864547     1.39100
O1034       O  0.73141802  0.13264478  0.45009248    -1.22700
O1035       O  0.72197533  0.13621415  0.88349718    -0.85000
O1036       O  0.70891592  0.12669471  0.95935068    -0.82000
C1037       C  0.70344756  0.11524843  0.95056674     0.98500
O1038       O  0.70931887  0.10957245  0.95082917    -0.82100
O1039       O  0.72876049  0.10540100  0.94201302    -0.84700
C1040       C  0.73100081  0.10600465  0.90138315     1.03000
O1041       O  0.73450338  0.11593835  0.88091260    -0.77500
O1042       O  0.74031978  0.13999690  0.86450308    -0.77700
C1043       C  0.72996234  0.13861036  0.85449836     1.03000
O1044       O  0.74290282  0.15480196  0.93287266    -0.85000
O1045       O  0.73096615  0.14362644  0.00912713    -0.82000
C1046       C  0.72619010  0.13555959  0.03850775     0.98500
O1047       O  0.72061878  0.12423955  0.02837162    -0.82100
O1048       O  0.74106355  0.12210374  0.01294673    -0.84700
C1049       C  0.75032302  0.12297899  0.99369817     1.03000
O1050       O  0.75147479  0.12442698  0.95269989    -0.77500
O1051       O  0.75539147  0.14765535  0.94194873    -0.77600
C1052       C  0.75357099  0.15661199  0.94060552     1.02900
Cr1053     Cr  0.72655362  0.13959442  0.94631008     1.93700
Cr1054     Cr  0.72535839  0.11624260  0.98105417     1.93200
Cr1055     Cr  0.74448146  0.13184222  0.91236668     1.39100
O1056       O  0.73209580  0.12918422  0.94635579    -1.22700
O1057       O  0.40318613  0.48364601  0.04206890    -0.85000
O1058       O  0.38372698  0.46949085  0.09693010    -0.82000
C1059       C  0.37721431  0.45998679  0.11955144     0.98500
O1060       O  0.38209894  0.45575634  0.14526382    -0.82100
O1061       O  0.39377094  0.44491126  0.10364477    -0.84700
C1062       C  0.40188944  0.44413034  0.08239729     1.03000
O1063       O  0.41196426  0.45364242  0.07409022    -0.77500
O1064       O  0.40591665  0.46819406  0.02459133    -0.77700
C1065       C  0.40260541  0.47579101  0.01426965     1.03000
O1066       O  0.41853585  0.49527439  0.12055467    -0.85000
O1067       O  0.39800969  0.48196276  0.17312980    -0.82000
C1068       C  0.40119246  0.47774320  0.20492308     0.98500
O1069       O  0.40384429  0.46947942  0.19914419    -0.82100
O1070       O  0.41483481  0.45838200  0.16090888    -0.84700
C1071       C  0.42591429  0.46651561  0.15343904     1.03000
O1072       O  0.42869654  0.47428153  0.12303550    -0.77500
O1073       O  0.42544639  0.48949371  0.06565141    -0.77600
C1074       C  0.42701938  0.49750288  0.09384465     1.02900
Cr1075     Cr  0.40127531  0.48174756  0.10836504     1.93700
Cr1076     Cr  0.39905528  0.45810066  0.14907352     1.93200
Cr1077     Cr  0.41706388  0.47134956  0.07447434     1.39100
O1078       O  0.40565748  0.47031438  0.11087073    -1.22700
O1079       O  0.39857659  0.48084078  0.54338745    -0.85000
O1080       O  0.38127522  0.46983007  0.60963621    -0.82000
C1081       C  0.37558821  0.45844283  0.59945804     0.98500
O1082       O  0.38109002  0.45240655  0.60095889    -0.82100
O1083       O  0.39985444  0.44694346  0.60660661    -0.84700
C1084       C  0.40420726  0.44847979  0.56834345     1.03000
O1085       O  0.40942050  0.45901409  0.55126907    -0.77500
O1086       O  0.41709401  0.48341652  0.53781897    -0.77700
C1087       C  0.40779832  0.48306192  0.52040949     1.03000
O1088       O  0.41682655  0.49724279  0.60625071    -0.85000
O1089       O  0.40053450  0.48456306  0.67356579    -0.82000
C1090       C  0.39417509  0.47570548  0.69905867     0.98500
O1091       O  0.38848622  0.46480892  0.68420846    -0.82100
O1092       O  0.40829647  0.46144687  0.68501602    -0.84700
C1093       C  0.41825920  0.46223660  0.67368631     1.03000
O1094       O  0.42205151  0.46497160  0.63461575    -0.77500
O1095       O  0.42807734  0.48911190  0.62345535    -0.77600
C1096       C  0.42699726  0.49847552  0.61882723     1.02900
Cr1097     Cr  0.39959780  0.48232714  0.60858650     1.93700
Cr1098     Cr  0.39507701  0.45742119  0.64183382     1.93200
Cr1099     Cr  0.41810936  0.47393872  0.58863745     1.39100
O1100       O  0.40427326  0.47123574  0.61282445    -1.22700
O1101       O  0.26519549  0.41704825  0.13550615    -0.85000
O1102       O  0.28192968  0.42488241  0.06667805    -0.82000
C1103       C  0.28813159  0.41982065  0.07636920     0.98500
O1104       O  0.28310972  0.40822257  0.07545940    -0.82100
O1105       O  0.26512423  0.38317390  0.06953543    -0.84700
C1106       C  0.26023631  0.37957421  0.10682471     1.03000
O1107       O  0.25485814  0.38455425  0.12488092    -0.77500
O1108       O  0.24676535  0.40072171  0.14009331    -0.77700
C1109       C  0.25623331  0.40937307  0.15836645     1.03000
O1110       O  0.24617171  0.41455268  0.07606979    -0.85000
O1111       O  0.26200403  0.41916509  0.00605505    -0.82000
C1112       C  0.26844084  0.41710636  0.97944447     0.98500
O1113       O  0.27470223  0.41244435  0.99297398    -0.82100
O1114       O  0.25602507  0.38843176  0.99172240    -0.84700
C1115       C  0.24620304  0.37898969  0.00320661     1.03000
O1116       O  0.24236780  0.37786507  0.04213822    -0.77500
O1117       O  0.23569257  0.39535194  0.05428721    -0.77600
C1118       C  0.23627520  0.40548794  0.06172147     1.02900
Cr1119     Cr  0.26356663  0.41785834  0.07063512     1.93700
Cr1120     Cr  0.26913515  0.39840575  0.03489352     1.93200
Cr1121     Cr  0.24591610  0.39052335  0.08854281     1.39100
O1122       O  0.25953483  0.40221671  0.06475271    -1.22700
O1123       O  0.25875844  0.41536328  0.63550371    -0.85000
O1124       O  0.27908992  0.41964804  0.58766057    -0.82000
C1125       C  0.28588601  0.41687935  0.56609251     0.98500
O1126       O  0.28125253  0.40796051  0.53913593    -0.82100
O1127       O  0.26979436  0.38631214  0.58602971    -0.84700
C1128       C  0.26187842  0.37786680  0.60969885     1.03000
O1129       O  0.25132838  0.37654008  0.61418828    -0.77500
O1130       O  0.25492019  0.39713101  0.65735843    -0.77700
C1131       C  0.25863765  0.40829414  0.66532733     1.03000
O1132       O  0.24525972  0.41116347  0.55370349    -0.85000
O1133       O  0.26631211  0.41720235  0.50617705    -0.82000
C1134       C  0.26277035  0.40918856  0.47586750     0.98500
O1135       O  0.25959558  0.39821007  0.48419663    -0.82100
O1136       O  0.24933693  0.37636754  0.52561587    -0.84700
C1137       C  0.23807020  0.37295379  0.52954598     1.03000
O1138       O  0.23459945  0.37831407  0.55590649    -0.77500
O1139       O  0.23591879  0.39735710  0.60488790    -0.77600
C1140       C  0.23579248  0.40450697  0.57608081     1.02900
Cr1141     Cr  0.26194422  0.41455726  0.57075571     1.93700
Cr1142     Cr  0.26448321  0.39276560  0.53652198     1.93200
Cr1143     Cr  0.24514977  0.38823388  0.60557165     1.39100
O1144       O  0.25721628  0.39854791  0.57085708    -1.22700
O1145       O  0.47904654  0.41223461  0.46341851    -0.85000
O1146       O  0.46438891  0.39202867  0.41097916    -0.82000
C1147       C  0.45490951  0.38531282  0.38827857     0.98500
O1148       O  0.45117124  0.38998233  0.35971713    -0.82100
O1149       O  0.44006889  0.40148825  0.39983771    -0.84700
C1150       C  0.43917255  0.40962374  0.42082954     1.03000
O1151       O  0.44854659  0.41991114  0.42904559    -0.77500
O1152       O  0.46395275  0.41548428  0.47991292    -0.77700
C1153       C  0.47170254  0.41249128  0.49132463     1.03000
O1154       O  0.49025916  0.42645097  0.38386271    -0.85000
O1155       O  0.47680607  0.40567075  0.33293554    -0.82000
C1156       C  0.47312601  0.40947548  0.30125886     0.98500
O1157       O  0.46467979  0.41185101  0.30619701    -0.82100
O1158       O  0.45267232  0.42222240  0.34211081    -0.84700
C1159       C  0.46045731  0.43347700  0.34907148     1.03000
O1160       O  0.46867056  0.43668145  0.37815063    -0.77500
O1161       O  0.48462916  0.43462108  0.43537009    -0.77600
C1162       C  0.49258706  0.43544551  0.40848602     1.02900
Cr1163     Cr  0.47673121  0.40943960  0.39748328     1.93700
Cr1164     Cr  0.45315138  0.40682744  0.35500439     1.93200
Cr1165     Cr  0.46640565  0.42570354  0.42808923     1.39100
O1166       O  0.46536202  0.41387882  0.39350421    -1.22700
O1167       O  0.47684837  0.40461674  0.96132018    -0.85000
O1168       O  0.46429331  0.38779834  0.89557564    -0.82000
C1169       C  0.45339257  0.38225419  0.91061044     0.98500
O1170       O  0.44749256  0.38784015  0.91379038    -0.82100
O1171       O  0.44173316  0.40622068  0.91764842    -0.84700
C1172       C  0.44435666  0.41010975  0.95673302     1.03000
O1173       O  0.45529891  0.41526193  0.96995405    -0.77500
O1174       O  0.47982080  0.42314736  0.97334307    -0.77700
C1175       C  0.47929683  0.41341270  0.98724912     1.03000
O1176       O  0.49161690  0.42366611  0.89823722    -0.85000
O1177       O  0.47721313  0.40764057  0.83142582    -0.82000
C1178       C  0.46756325  0.40157134  0.80877697     0.98500
O1179       O  0.45730535  0.39549829  0.82759308    -0.82100
O1180       O  0.45396590  0.41523352  0.83534957    -0.84700
C1181       C  0.45499304  0.42507096  0.85002070     1.03000
O1182       O  0.45847317  0.42847985  0.88918927    -0.77500
O1183       O  0.48272987  0.43465950  0.88945413    -0.77600
C1184       C  0.49227752  0.43385897  0.88926439     1.02900
Cr1185     Cr  0.47678211  0.40623865  0.89669826     1.93700
Cr1186     Cr  0.45114116  0.40179231  0.87540029     1.93200
Cr1187     Cr  0.46888244  0.42441966  0.92838970     1.39100
O1188       O  0.46564454  0.41085462  0.90019506    -1.22700
O1189       O  0.40986821  0.27330131  0.38533217    -0.85000
O1190       O  0.41750730  0.29031813  0.45318282    -0.82000
C1191       C  0.41206547  0.29625742  0.44488142     0.98500
O1192       O  0.40050453  0.29100082  0.44803913    -0.82100
O1193       O  0.37585671  0.27219921  0.45903297    -0.84700
C1194       C  0.37181400  0.26724519  0.42209821     1.03000
O1195       O  0.37690681  0.26236270  0.40159203    -0.77500
O1196       O  0.39324519  0.25502359  0.38009508    -0.77700
C1197       C  0.40198735  0.26444590  0.36216721     1.03000
O1198       O  0.40861597  0.25480283  0.44515190    -0.85000
O1199       O  0.41330760  0.27093924  0.51468884    -0.82000
C1200       C  0.41139480  0.27745070  0.54159723     0.98500
O1201       O  0.40649872  0.28350095  0.52847417    -0.82100
O1202       O  0.38284246  0.26386459  0.53320195    -0.84700
C1203       C  0.37355340  0.25361185  0.52331092     1.03000
O1204       O  0.37190928  0.24950719  0.48434150    -0.77500
O1205       O  0.38940898  0.24348390  0.46478059    -0.77600
C1206       C  0.39980148  0.24464013  0.45853260     1.02900
Cr1207     Cr  0.41121650  0.27202442  0.45019578     1.93700
Cr1208     Cr  0.39176813  0.27700155  0.48942943     1.93200
Cr1209     Cr  0.38380301  0.25366665  0.43445823     1.39100
O1210       O  0.39554974  0.26751550  0.45789232    -1.22700
O1211       O  0.40826323  0.26510980  0.88337694    -0.85000
O1212       O  0.41326018  0.28569590  0.93112116    -0.82000
C1213       C  0.41066097  0.29279120  0.95164140     0.98500
O1214       O  0.40170892  0.28851239  0.97789418    -0.82100
O1215       O  0.38004145  0.27666412  0.92990400    -0.84700
C1216       C  0.37127210  0.26834355  0.90798142     1.03000
O1217       O  0.36965845  0.25758662  0.90641387    -0.77500
O1218       O  0.38977584  0.26072887  0.86220898    -0.77700
C1219       C  0.40093557  0.26474670  0.85388610     1.03000
O1220       O  0.40451500  0.25175859  0.96615990    -0.85000
O1221       O  0.41071641  0.27308535  0.01314906    -0.82000
C1222       C  0.40278605  0.27013545  0.04323896     0.98500
O1223       O  0.39196204  0.26745045  0.03449919    -0.82100
O1224       O  0.37002412  0.25690719  0.99218414    -0.84700
C1225       C  0.36676279  0.24559541  0.99111103     1.03000
O1226       O  0.37234493  0.24178981  0.96735868    -0.77500
O1227       O  0.39053948  0.24233488  0.91546898    -0.77600
C1228       C  0.39758199  0.24213074  0.94447499     1.02900
Cr1229     Cr  0.40793754  0.26852417  0.94843802     1.93700
Cr1230     Cr  0.38648830  0.27184828  0.98101804     1.93200
Cr1231     Cr  0.38146785  0.25155526  0.91533206     1.39100
O1232       O  0.39205853  0.26405876  0.94830275    -1.22700
O1233       O  0.19530713  0.26233941  0.22157176    -0.85000
O1234       O  0.20324168  0.25726247  0.29858057    -0.82000
C1235       C  0.21482320  0.26325395  0.29422555     0.98500
O1236       O  0.22063266  0.27488799  0.29597304    -0.82100
O1237       O  0.22517616  0.29901332  0.28968518    -0.84700
C1238       C  0.22497162  0.30146984  0.24950741     1.03000
O1239       O  0.21551425  0.29494137  0.22662351    -0.77500
O1240       O  0.19173914  0.27714814  0.20435397    -0.77700
C1241       C  0.19356500  0.26853085  0.19300839     1.03000
O1242       O  0.17608762  0.26401949  0.26848687    -0.85000
O1243       O  0.18595421  0.26170381  0.34629778    -0.82000
C1244       C  0.19355617  0.26451133  0.37733460     0.98500
O1245       O  0.20498962  0.27065717  0.37004600    -0.82100
O1246       O  0.20781611  0.29386132  0.35822436    -0.84700
C1247       C  0.20745018  0.30264447  0.33968093     1.03000
O1248       O  0.20645684  0.30275914  0.29845626    -0.77500
O1249       O  0.18339494  0.28363348  0.28198989    -0.77600
C1250       C  0.17439018  0.27289799  0.27758407     1.02900
Cr1251     Cr  0.19087656  0.26243955  0.28401679     1.93700
Cr1252     Cr  0.21378479  0.28413404  0.32567630     1.93200
Cr1253     Cr  0.19938458  0.28879427  0.25516320     1.39100
O1254       O  0.20138027  0.27845337  0.28826627    -1.22700
O1255       O  0.19318426  0.26133670  0.72014500    -0.85000
O1256       O  0.20396033  0.25756509  0.79205858    -0.82000
C1257       C  0.21530488  0.26340839  0.78184065     0.98500
O1258       O  0.22114591  0.27502635  0.78144270    -0.82100
O1259       O  0.22605918  0.29914478  0.77698449    -0.84700
C1260       C  0.22488403  0.30080022  0.73677626     1.03000
O1261       O  0.21467586  0.29437107  0.71784809    -0.77500
O1262       O  0.19037087  0.27667689  0.70281189    -0.77700
C1263       C  0.19096563  0.26725129  0.69190071     1.03000
O1264       O  0.17607201  0.26454682  0.77426619    -0.85000
O1265       O  0.18847668  0.26339129  0.84756367    -0.82000
C1266       C  0.19703918  0.26642252  0.87496998     0.98500
O1267       O  0.20804879  0.27158325  0.86207923    -0.82100
O1268       O  0.21061699  0.29449344  0.85134068    -0.84700
C1269       C  0.21006131  0.30330855  0.83426641     1.03000
O1270       O  0.20786536  0.30325097  0.79364160    -0.77500
O1271       O  0.18409501  0.28445972  0.78290834    -0.77600
C1272       C  0.17480084  0.27381516  0.78136412     1.02900
Cr1273     Cr  0.19116119  0.26279172  0.78369340     1.93700
Cr1274     Cr  0.21549247  0.28458380  0.81553036     1.93200
Cr1275     Cr  0.19940453  0.28889966  0.75154926     1.39100
O1276       O  0.20200807  0.27874920  0.78333493    -1.22700
O1277       O  0.25725547  0.19327580  0.30384104    -0.85000
O1278       O  0.24997425  0.20355462  0.23864401    -0.82000
C1279       C  0.25525533  0.21495543  0.24847605     0.98500
O1280       O  0.26680094  0.22158781  0.24641705    -0.82100
O1281       O  0.29151552  0.22857540  0.23971384    -0.84700
C1282       C  0.29462778  0.22730718  0.27788732     1.03000
O1283       O  0.28956769  0.21685062  0.29541226    -0.77500
O1284       O  0.27406359  0.19222353  0.30914127    -0.77700
C1285       C  0.26492249  0.19204502  0.32686291     1.03000
O1286       O  0.26019060  0.17783015  0.24001850    -0.85000
O1287       O  0.25556855  0.18986863  0.17308834    -0.82000
C1288       C  0.25743610  0.19866316  0.14821046     0.98500
O1289       O  0.26196243  0.20939452  0.16388604    -0.82100
O1290       O  0.28565301  0.21399818  0.16180955    -0.84700
C1291       C  0.29498652  0.21337680  0.17238075     1.03000
O1292       O  0.29668066  0.21140674  0.21177245    -0.77500
O1293       O  0.27972641  0.18725795  0.22328442    -0.77600
C1294       C  0.26956419  0.17747942  0.22710355     1.02900
Cr1295     Cr  0.25678263  0.19194293  0.23847040     1.93700
Cr1296     Cr  0.27618811  0.21741601  0.20528809     1.93200
Cr1297     Cr  0.28411014  0.20206984  0.25823803     1.39100
O1298       O  0.27234831  0.20380504  0.23431391    -1.22700
O1299       O  0.25743306  0.18928339  0.80201699    -0.85000
O1300       O  0.25370042  0.20585594  0.75517511    -0.82000
C1301       C  0.25659958  0.21565410  0.73477257     0.98500
O1302       O  0.26549831  0.22008123  0.70818697    -0.82100
O1303       O  0.28677896  0.22990603  0.75836306    -0.84700
C1304       C  0.29517866  0.23025076  0.78191735     1.03000
O1305       O  0.29636003  0.22088843  0.78541839    -0.77500
O1306       O  0.27563632  0.20323089  0.82710974    -0.77700
C1307       C  0.26451133  0.19534378  0.83363162     1.03000
O1308       O  0.26174112  0.18023016  0.72044318    -0.85000
O1309       O  0.25650779  0.19589211  0.67303091    -0.82000
C1310       C  0.26471484  0.20042524  0.64371580     0.98500
O1311       O  0.27557808  0.20846358  0.65329277    -0.82100
O1312       O  0.29712979  0.22017765  0.69873562    -0.84700
C1313       C  0.30052326  0.21230573  0.70128613     1.03000
O1314       O  0.29454730  0.20270849  0.72408323    -0.77500
O1315       O  0.27520252  0.18450402  0.77282400    -0.77600
C1316       C  0.26763048  0.17698361  0.74514509     1.02900
Cr1317     Cr  0.25862719  0.19374824  0.73771915     1.93700
Cr1318     Cr  0.28062619  0.21852418  0.70715066     1.93200
Cr1319     Cr  0.28460679  0.20295124  0.77458063     1.39100
O1320       O  0.27456462  0.20507972  0.73992698    -1.22700
O1321       O  0.91718358  0.18691622  0.29379816    -0.85000
O1322       O  0.92646226  0.21149299  0.27238882    -0.82000
C1323       C  0.93064077  0.22120510  0.25016760     0.98500
O1324       O  0.93333122  0.22108509  0.21028978    -0.82100
O1325       O  0.95033590  0.21317217  0.20926880    -0.84700
C1326       C  0.95490835  0.20627703  0.21063303     1.03000
O1327       O  0.94825735  0.19477728  0.20310120    -0.77500
O1328       O  0.93390383  0.18659212  0.27612796    -0.77700
C1329       C  0.92648367  0.18615111  0.30460535     1.03000
O1330       O  0.90254922  0.18035094  0.21504071    -0.85000
O1331       O  0.91011204  0.20420147  0.19716681    -0.82000
C1332       C  0.91186817  0.20512336  0.15601503     0.98500
O1333       O  0.92074334  0.20455770  0.13960494    -0.82100
O1334       O  0.93931590  0.19908958  0.13146875    -0.84700
C1335       C  0.93214515  0.18798948  0.12065159     1.03000
O1336       O  0.92599677  0.18017731  0.14958915    -0.77500
O1337       O  0.91236063  0.17027181  0.22419189    -0.77600
C1338       C  0.90249801  0.17035608  0.21685513     1.02900
Cr1339     Cr  0.91498451  0.19573302  0.24248904     1.93700
Cr1340     Cr  0.93539848  0.20858587  0.17535815     1.93200
Cr1341     Cr  0.92991561  0.18379634  0.21293876     1.39100
O1342       O  0.92675926  0.19601617  0.21059355    -1.22700
O1343       O  0.91556779  0.18688599  0.79146376    -0.85000
O1344       O  0.92373003  0.21089636  0.77012774    -0.82000
C1345       C  0.92803254  0.22085518  0.74955646     0.98500
O1346       O  0.93093687  0.22127943  0.70959249    -0.82100
O1347       O  0.94911773  0.21474796  0.70824785    -0.84700
C1348       C  0.95409436  0.20820786  0.70934358     1.03000
O1349       O  0.94769930  0.19663852  0.70294345    -0.77500
O1350       O  0.93323289  0.18829963  0.77610089    -0.77700
C1351       C  0.92532169  0.18717510  0.80373450     1.03000
O1352       O  0.90123019  0.17944147  0.71194165    -0.85000
O1353       O  0.90774225  0.20325071  0.69357582    -0.82000
C1354       C  0.90993329  0.20435788  0.65271653     0.98500
O1355       O  0.91930187  0.20451987  0.63785711    -0.82100
O1356       O  0.93835826  0.20016959  0.63084456    -0.84700
C1357       C  0.93187788  0.18889344  0.62052106     1.03000
O1358       O  0.92592157  0.18100492  0.64952344    -0.77500
O1359       O  0.91228295  0.17078401  0.72411399    -0.77600
C1360       C  0.90197711  0.16990209  0.71641619     1.02900
Cr1361     Cr  0.91300237  0.19522654  0.73953929     1.93700
Cr1362     Cr  0.93387090  0.20928557  0.67440207     1.93200
Cr1363     Cr  0.92950684  0.18497315  0.71279605     1.39100
O1364       O  0.92544368  0.19647872  0.70906840    -1.22700
O1365       O  0.08327836  0.27186094  0.17811573    -0.85000
O1366       O  0.07640122  0.28890810  0.19975535    -0.82000
C1367       C  0.07191122  0.29433636  0.22085527     0.98500
O1368       O  0.06827022  0.29121228  0.25990862    -0.82100
O1369       O  0.04924511  0.26680156  0.25706494    -0.84700
C1370       C  0.04370892  0.25521413  0.25410885     1.03000
O1371       O  0.04945281  0.24946857  0.26021040    -0.77500
O1372       O  0.06471902  0.25603965  0.18795897    -0.77700
C1373       C  0.07349036  0.26285462  0.16276612     1.03000
O1374       O  0.09585899  0.27691971  0.26148452    -0.85000
O1375       O  0.09082563  0.29528267  0.27853788    -0.82000
C1376       C  0.08807845  0.29423666  0.31881590     0.98500
O1377       O  0.07851163  0.28491742  0.33251445    -0.82100
O1378       O  0.05861119  0.26152486  0.33480111    -0.84700
C1379       C  0.06490090  0.25663562  0.34511286     1.03000
O1380       O  0.07037414  0.25419286  0.31566852    -0.77500
O1381       O  0.08430694  0.25762365  0.24191152    -0.77600
C1382       C  0.09450698  0.26640564  0.25528715     1.02900
Cr1383     Cr  0.08562929  0.28238274  0.23134169     1.93700
Cr1384     Cr  0.06419235  0.27575137  0.29333630     1.93200
Cr1385     Cr  0.06747528  0.25538181  0.25198563     1.39100
O1386       O  0.07236713  0.27119069  0.25842941    -1.22700
O1387       O  0.08213311  0.27214215  0.67640429    -0.85000
O1388       O  0.07442871  0.28860620  0.69754089    -0.82000
C1389       C  0.07041530  0.29435004  0.71929388     0.98500
O1390       O  0.06757098  0.29178565  0.75906529    -0.82100
O1391       O  0.04877834  0.26755565  0.75761805    -0.84700
C1392       C  0.04325231  0.25597527  0.75450676     1.03000
O1393       O  0.04896156  0.25020351  0.76171549    -0.77500
O1394       O  0.06414616  0.25602546  0.69062133    -0.77700
C1395       C  0.07226649  0.26279490  0.66339775     1.03000
O1396       O  0.09586435  0.27871550  0.75767798    -0.85000
O1397       O  0.09002959  0.29652324  0.77433114    -0.82000
C1398       C  0.08774829  0.29576712  0.81505588     0.98500
O1399       O  0.07850487  0.28635536  0.83047028    -0.82100
O1400       O  0.05813766  0.26284318  0.83576269    -0.84700
C1401       C  0.06382050  0.25742027  0.84699342     1.03000
O1402       O  0.06987957  0.25532436  0.81890248    -0.77500
O1403       O  0.08431026  0.25883291  0.74601698    -0.77600
C1404       C  0.09466101  0.26815946  0.75561420     1.02900
Cr1405     Cr  0.08464705  0.28311066  0.72859695     1.93700
Cr1406     Cr  0.06381213  0.27673184  0.79313713     1.93200
Cr1407     Cr  0.06717095  0.25618436  0.75465141     1.39100
O1408       O  0.07190134  0.27199106  0.75864575    -1.22700
O1409       O  0.05111582  0.46475198  0.99359717    -0.85000
O1410       O  0.02899407  0.44709571  0.02623275    -0.82000
C1411       C  0.02989849  0.43755708  0.02690270     0.98500
O1412       O  0.03777070  0.43711074  0.05099235    -0.82100
O1413       O  0.05719900  0.44468747  0.10883542    -0.84700
C1414       C  0.06725232  0.45001925  0.08838017     1.03000
O1415       O  0.07123294  0.46061585  0.07258717    -0.77500
O1416       O  0.06877741  0.47774075  0.02544995    -0.77700
C1417       C  0.06255691  0.47195281  0.99167378     1.03000
O1418       O  0.05071948  0.48280336  0.04907088    -0.85000
O1419       O  0.03036658  0.46425903  0.09080972    -0.82000
C1420       C  0.02380585  0.45440716  0.11152455     0.98500
O1421       O  0.02619557  0.44576914  0.11107974    -0.82100
O1422       O  0.04599346  0.45470956  0.16347856    -0.84700
C1423       C  0.05615848  0.46278934  0.17884828     1.03000
O1424       O  0.06537815  0.46880881  0.15413246    -0.77500
O1425       O  0.06190846  0.48537260  0.10700947    -0.77600
C1426       C  0.05645654  0.48908497  0.08226441     1.02900
Cr1427     Cr  0.04103055  0.46452388  0.04271042     1.93700
Cr1428     Cr  0.04249844  0.44673716  0.10636848     1.93200
Cr1429     Cr  0.06560100  0.47227869  0.08904270     1.39100
O1430       O  0.04982487  0.46116644  0.07942922    -1.22700
O1431       O  0.04779399  0.46552949  0.51109833    -0.85000
O1432       O  0.02973811  0.44854418  0.56347245    -0.82000
C1433       C  0.03147616  0.43961595  0.55794421     0.98500
O1434       O  0.04093300  0.44001313  0.57356591    -0.82100
O1435       O  0.06404495  0.44955696  0.61173601    -0.84700
C1436       C  0.07240197  0.45454923  0.58338801     1.03000
O1437       O  0.07433598  0.46419507  0.56414406    -0.77500
O1438       O  0.06738171  0.47906267  0.52268666    -0.77700
C1439       C  0.05843214  0.47269004  0.49671600     1.03000
O1440       O  0.05121408  0.48463153  0.56819279    -0.85000
O1441       O  0.03536475  0.46717334  0.62739157    -0.82000
C1442       C  0.03053086  0.45768118  0.65107100     0.98500
O1443       O  0.03367016  0.44960302  0.64736301    -0.82100
O1444       O  0.05709051  0.46061357  0.67821102    -0.84700
C1445       C  0.06789451  0.46954345  0.68214157     1.03000
O1446       O  0.07445263  0.47503263  0.64900249    -0.77500
O1447       O  0.06734414  0.48962303  0.60863176    -0.77600
C1448       C  0.05977057  0.49221288  0.59252244     1.02900
Cr1449     Cr  0.04206216  0.46639616  0.56961480     1.93700
Cr1450     Cr  0.04934300  0.45102396  0.62497461     1.93200
Cr1451     Cr  0.06958484  0.47602337  0.58662327     1.39100
O1452       O  0.05380979  0.46455272  0.59391206    -1.22700
O1453       O  0.13836951  0.39492342  0.12368882    -0.85000
O1454       O  0.11437096  0.37793429  0.10109720    -0.82000
C1455       C  0.10473947  0.37182691  0.07867075     0.98500
O1456       O  0.10446209  0.37473160  0.03919391    -0.82100
O1457       O  0.11050336  0.39949246  0.04026273    -0.84700
C1458       C  0.11682217  0.41112153  0.04105548     1.03000
O1459       O  0.12825570  0.41657897  0.03291286    -0.77500
O1460       O  0.13680871  0.41109049  0.10704237    -0.77700
C1461       C  0.13807189  0.40448133  0.13512946     1.03000
O1462       O  0.14621310  0.38822518  0.04446799    -0.85000
O1463       O  0.12273723  0.37039038  0.02533241    -0.82000
C1464       C  0.12140936  0.37114737  0.98438274     0.98500
O1465       O  0.12112104  0.38026155  0.96863428    -0.82100
O1466       O  0.12492930  0.40379512  0.96258715    -0.84700
C1467       C  0.13608630  0.40854022  0.95189885     1.03000
O1468       O  0.14408494  0.41066139  0.98086259    -0.77500
O1469       O  0.15450721  0.40798104  0.05734687    -0.77600
C1470       C  0.15560034  0.39870224  0.04890466     1.02900
Cr1471     Cr  0.13034293  0.38370801  0.07157514     1.93700
Cr1472     Cr  0.11612089  0.38996971  0.00541650     1.93200
Cr1473     Cr  0.14015677  0.41050141  0.04411770     1.39100
O1474       O  0.12887839  0.39470296  0.04063813    -1.22700
O1475       O  0.13705109  0.39349941  0.62401310    -0.85000
O1476       O  0.11320634  0.37722183  0.59908062    -0.82000
C1477       C  0.10376688  0.37092332  0.57600187     0.98500
O1478       O  0.10385954  0.37333476  0.53579574    -0.82100
O1479       O  0.10978224  0.39783961  0.53538349    -0.84700
C1480       C  0.11597038  0.40944075  0.53776471     1.03000
O1481       O  0.12749369  0.41513722  0.53101145    -0.77500
O1482       O  0.13569070  0.40966988  0.60639263    -0.77700
C1483       C  0.13657104  0.40294570  0.63505013     1.03000
O1484       O  0.14528368  0.38650106  0.54776862    -0.85000
O1485       O  0.12189276  0.36891798  0.52662355    -0.82000
C1486       C  0.12112699  0.36957311  0.48537295     0.98500
O1487       O  0.12125045  0.37873426  0.46800847    -0.82100
O1488       O  0.12480966  0.40225505  0.45975907    -0.84700
C1489       C  0.13609497  0.40736924  0.45068066     1.03000
O1490       O  0.14383628  0.40948046  0.48059713    -0.77500
O1491       O  0.15376147  0.40647145  0.55718633    -0.77600
C1492       C  0.15473118  0.39697320  0.55154305     1.02900
Cr1493     Cr  0.12927981  0.38236833  0.57206945     1.93700
Cr1494     Cr  0.11581066  0.38846511  0.50243909     1.93200
Cr1495     Cr  0.13945968  0.40912758  0.54341003     1.39100
O1496       O  0.12826672  0.39333123  0.53931784    -1.22700
O1497       O  0.93175682  0.41138554  0.44720522    -0.85000
O1498       O  0.94876123  0.40435147  0.43302742    -0.82000
C1499       C  0.95496373  0.40029792  0.41500194     0.98500
O1500       O  0.95318406  0.39715926  0.37491748    -0.82100
O1501       O  0.92855411  0.37821740  0.36887954    -0.84700
C1502       C  0.91697699  0.37286623  0.36691727     1.03000
O1503       O  0.91176975  0.37889223  0.35609009    -0.77500
O1504       O  0.91614468  0.39326197  0.42924198    -0.77700
C1505       C  0.92232528  0.40130495  0.45784633     1.03000
O1506       O  0.93985950  0.42560732  0.36741550    -0.85000
O1507       O  0.95804468  0.42018022  0.35694275    -0.82000
C1508       C  0.95775743  0.41796159  0.31622379     0.98500
O1509       O  0.94907535  0.40821557  0.29990289    -0.82100
O1510       O  0.92592515  0.38854702  0.28767056    -0.84700
C1511       C  0.92111019  0.39476391  0.27507270     1.03000
O1512       O  0.91854590  0.40061234  0.30259540    -0.77500
O1513       O  0.92002423  0.41412670  0.37657539    -0.77600
C1514       C  0.92943433  0.42458108  0.36924321     1.02900
Cr1515     Cr  0.94382971  0.41443821  0.39890572     1.93700
Cr1516     Cr  0.93876671  0.39352820  0.33533490     1.93200
Cr1517     Cr  0.91769020  0.39704118  0.36604128     1.39100
O1518       O  0.93344463  0.40167425  0.36695412    -1.22700
O1519       O  0.92942397  0.40819328  0.94653304    -0.85000
O1520       O  0.94570896  0.40045040  0.92575214    -0.82000
C1521       C  0.95160498  0.39659343  0.90430327     0.98500
O1522       O  0.94941718  0.39413324  0.86393063    -0.82100
O1523       O  0.92492460  0.37563160  0.85949341    -0.84700
C1524       C  0.91335585  0.37030589  0.85985450     1.03000
O1525       O  0.90801236  0.37645359  0.85317945    -0.77500
O1526       O  0.91336398  0.39039073  0.92871615    -0.77700
C1527       C  0.91997758  0.39820719  0.95744417     1.03000
O1528       O  0.93700311  0.42335006  0.87008768    -0.85000
O1529       O  0.95469281  0.41725455  0.85255895    -0.82000
C1530       C  0.95436437  0.41551772  0.81145139     0.98500
O1531       O  0.94520417  0.40641148  0.79378267    -0.82100
O1532       O  0.92156494  0.38678121  0.78281003    -0.84700
C1533       C  0.91687138  0.39327683  0.77304861     1.03000
O1534       O  0.91443373  0.39870148  0.80267795    -0.77500
O1535       O  0.91706759  0.41175717  0.87834689    -0.77600
C1536       C  0.92655374  0.42230810  0.87294608     1.02900
Cr1537     Cr  0.94087123  0.41136776  0.89625999     1.93700
Cr1538     Cr  0.93485508  0.39125190  0.82771605     1.93200
Cr1539     Cr  0.91428096  0.39461911  0.86549717     1.39100
O1540       O  0.93000512  0.39912877  0.86319954    -1.22700
O1541       O  0.86307019  0.25069996  0.33865845    -0.85000
O1542       O  0.87966475  0.24665287  0.38320513    -0.82000
C1543       C  0.88924466  0.25711699  0.38291697     0.98500
O1544       O  0.88920550  0.26608245  0.40116760    -0.82100
O1545       O  0.88112060  0.27956043  0.44707250    -0.84700
C1546       C  0.87576384  0.28393829  0.42504140     1.03000
O1547       O  0.86522132  0.27698392  0.40894312    -0.77500
O1548       O  0.84989642  0.25646190  0.35935794    -0.77700
C1549       C  0.85640120  0.25526022  0.33009680     1.03000
O1550       O  0.84379443  0.23301460  0.39106474    -0.85000
O1551       O  0.86121296  0.23242273  0.44544955    -0.82000
C1552       C  0.87055421  0.23634025  0.46993676     0.98500
O1553       O  0.87910520  0.24749336  0.46891987    -0.82100
O1554       O  0.87004925  0.26027123  0.50919610    -0.84700
C1555       C  0.86119246  0.26174702  0.51898382     1.03000
O1556       O  0.85485195  0.26315905  0.48968860    -0.77500
O1557       O  0.83962867  0.24274786  0.44096267    -0.77600
C1558       C  0.83649422  0.23317513  0.41864935     1.02900
Cr1559     Cr  0.86206949  0.24178294  0.39215483     1.93700
Cr1560     Cr  0.87866088  0.26275402  0.45382853     1.93200
Cr1561     Cr  0.85336075  0.25944449  0.42462863     1.39100
O1562       O  0.86466014  0.25478151  0.42381283    -1.22700
O1563       O  0.85985850  0.24545167  0.84908893    -0.85000
O1564       O  0.87615555  0.24288644  0.90077719    -0.82000
C1565       C  0.88577693  0.25325828  0.89764156     0.98500
O1566       O  0.88591049  0.26276209  0.91139248    -0.82100
O1567       O  0.87822488  0.27777681  0.94797418    -0.84700
C1568       C  0.87338229  0.28171209  0.92131453     1.03000
O1569       O  0.86309762  0.27449426  0.90401360    -0.77500
O1570       O  0.84751668  0.25287049  0.86050701    -0.77700
C1571       C  0.85389626  0.25031223  0.83498066     1.03000
O1572       O  0.84034986  0.22991231  0.90607804    -0.85000
O1573       O  0.85769268  0.23061697  0.96461125    -0.82000
C1574       C  0.86725030  0.23505331  0.98823526     0.98500
O1575       O  0.87553462  0.24627070  0.98513216    -0.82100
O1576       O  0.86630434  0.26027479  0.01496405    -0.84700
C1577       C  0.85799991  0.26292894  0.01989271     1.03000
O1578       O  0.85201417  0.26360755  0.98758451    -0.77500
O1579       O  0.83641942  0.24199515  0.94556282    -0.77600
C1580       C  0.83315547  0.23153497  0.92983808     1.02900
Cr1581     Cr  0.85861582  0.23840905  0.90709790     1.93700
Cr1582     Cr  0.87527328  0.26107430  0.96208989     1.93200
Cr1583     Cr  0.85065853  0.25773604  0.92491436     1.39100
O1584       O  0.86142950  0.25247702  0.93167548    -1.22700
C1585       C  0.85072547  0.25871822  0.63959865     0.16300
C1586       C  0.84446407  0.25616782  0.67998054    -0.32700
C1587       C  0.85082227  0.25605718  0.71803607     0.20700
C1588       C  0.86280106  0.25840958  0.71544886     0.02900
C1589       C  0.86901899  0.26111832  0.67576834    -0.22500
C1590       C  0.86272860  0.26116745  0.63827100     0.12100
S1591       S  0.84476244  0.25858803  0.58859100    -0.06100
C1592       C  0.85863446  0.26175588  0.56619164    -0.09600
C1593       C  0.86726853  0.26297900  0.59690913    -0.26200
S1594       S  0.86892109  0.25718516  0.76327028    -0.03400
C1595       C  0.85529181  0.25347994  0.78818543    -0.16800
C1596       C  0.84644251  0.25335264  0.76045412    -0.14800
H1597       H  0.83503916  0.25410526  0.68152898     0.20500
H1598       H  0.87832716  0.26281834  0.67402369     0.16600
H1599       H  0.87638601  0.26469951  0.58923430     0.19100
H1600       H  0.83728294  0.25100741  0.77037971     0.12400
C1601       C  0.86330849  0.26673587  0.21321499     0.16300
C1602       C  0.86904803  0.27071617  0.17290631    -0.32700
C1603       C  0.86161824  0.26865329  0.13635560     0.20700
C1604       C  0.84895816  0.26310776  0.13930430     0.02900
C1605       C  0.84316915  0.25956044  0.18046929    -0.22500
C1606       C  0.85067359  0.26138799  0.21740549     0.12100
S1607       S  0.87085195  0.26680466  0.25926983    -0.06100
C1608       C  0.85694970  0.25966210  0.28541752    -0.09600
C1609       C  0.84693082  0.25745620  0.25965439    -0.26200
S1610       S  0.84168386  0.25969782  0.08911323    -0.03400
C1611       C  0.85591982  0.26552179  0.06503064    -0.16800
C1612       C  0.86561315  0.27030043  0.09434842    -0.14800
H1613       H  0.87886646  0.27452935  0.16972216     0.20500
H1614       H  0.83326527  0.25490732  0.18321464     0.16600
H1615       H  0.83746935  0.25259201  0.27043867     0.19100
H1616       H  0.87511002  0.27374584  0.08540295     0.12400
C1617       C  0.89118021  0.33523217  0.87277243     0.16300
C1618       C  0.88112994  0.32310429  0.87428975    -0.32700
C1619       C  0.88327064  0.31378750  0.88950160     0.20700
C1620       C  0.89488964  0.31648737  0.90286455     0.02900
C1621       C  0.90492951  0.32853720  0.90079207    -0.22500
C1622       C  0.90280499  0.33780225  0.88540498     0.12100
S1623       S  0.89055573  0.34795648  0.85655210    -0.06100
C1624       C  0.90613875  0.35679773  0.86670226    -0.09600
C1625       C  0.91140338  0.35008147  0.88162203    -0.26200
S1626       S  0.89559619  0.30411106  0.92186138    -0.03400
C1627       C  0.88009684  0.29503004  0.91100753    -0.16800
C1628       C  0.87472954  0.30143255  0.89378040    -0.14800
H1629       H  0.87203402  0.32103784  0.86435223     0.20500
H1630       H  0.91400663  0.33062327  0.91111401     0.16600
H1631       H  0.92103016  0.35401488  0.88986220     0.19100
H1632       H  0.86508216  0.29731968  0.88560579     0.12400
C1633       C  0.89424341  0.33795836  0.38082337     0.16300
C1634       C  0.88418200  0.32581427  0.37986076    -0.32700
C1635       C  0.88586088  0.31642730  0.39750218     0.20700
C1636       C  0.89702055  0.31911519  0.41583509     0.02900
C1637       C  0.90704662  0.33120012  0.41667184    -0.22500
C1638       C  0.90543106  0.34051466  0.39846692     0.12100
S1639       S  0.89422756  0.35066147  0.36070595    -0.06100
C1640       C  0.90951434  0.35945739  0.37551636    -0.09600
C1641       C  0.91421818  0.35277236  0.39529857    -0.26200
S1642       S  0.89732905  0.30661919  0.43567723    -0.03400
C1643       C  0.88230054  0.29747600  0.41857199    -0.16800
C1644       C  0.87734565  0.30397454  0.39883389    -0.14800
H1645       H  0.87547056  0.32376350  0.36564262     0.20500
H1646       H  0.91578962  0.33323750  0.43058657     0.16600
H1647       H  0.92359944  0.35667991  0.40677163     0.19100
H1648       H  0.86806820  0.29983028  0.38608678     0.12400
C1649       C  0.91777114  0.40319077  0.65471338     0.16300
C1650       C  0.92122417  0.40987594  0.61558235    -0.32700
C1651       C  0.91870991  0.40322400  0.57625766     0.20700
C1652       C  0.91259981  0.39044725  0.57571237     0.02900
C1653       C  0.90917927  0.38374987  0.61489365    -0.22500
C1654       C  0.91212491  0.39043689  0.65433661     0.12100
S1655       S  0.92094135  0.40964845  0.70580951    -0.06100
C1656       C  0.91503864  0.39507465  0.72685494    -0.09600
C1657       C  0.91066448  0.38572384  0.69579249    -0.26200
S1658       S  0.91068556  0.38413412  0.52460313    -0.03400
C1659       C  0.91864581  0.39887912  0.50404520    -0.16800
C1660       C  0.92228242  0.40811802  0.53523678    -0.14800
H1661       H  0.92606703  0.41985612  0.61586305     0.20500
H1662       H  0.90482336  0.37379657  0.61468564     0.16600
H1663       H  0.90706615  0.37607645  0.70311673     0.19100
H1664       H  0.92754883  0.41789406  0.52838174     0.12400
C1665       C  0.91392493  0.38836048  0.07788557     0.16300
C1666       C  0.91266827  0.38249230  0.11821807    -0.32700
C1667       C  0.91529135  0.38962910  0.15656231     0.20700
C1668       C  0.91853542  0.40193225  0.15490443     0.02900
C1669       C  0.91983695  0.40780044  0.11465062    -0.22500
C1670       C  0.91767911  0.40079314  0.07632354     0.12100
S1671       S  0.91211703  0.38160754  0.02748486    -0.06100
C1672       C  0.91695477  0.39580102  0.00427383    -0.09600
C1673       C  0.91953168  0.40512567  0.03422294    -0.26200
S1674       S  0.92149905  0.40906206  0.20485568    -0.03400
C1675       C  0.91882086  0.39547760  0.22817573    -0.16800
C1676       C  0.91558101  0.38590275  0.19861584    -0.14800
H1677       H  0.91016737  0.37289536  0.11958054     0.20500
H1678       H  0.92280668  0.41751945  0.11323035     0.16600
H1679       H  0.92299328  0.41467450  0.02564797     0.19100
H1680       H  0.91377340  0.37679541  0.20736872     0.12400
C1681       C  0.14475692  0.40913211  0.83178612     0.16300
C1682       C  0.14836736  0.40646017  0.79176020    -0.32700
C1683       C  0.14253003  0.40712449  0.75349517     0.20700
C1684       C  0.13376475  0.41068159  0.75474516     0.02900
C1685       C  0.13006424  0.41323573  0.79481770    -0.22500
C1686       C  0.13563627  0.41220146  0.83320311     0.12100
S1687       S  0.15000565  0.40786851  0.88213275    -0.06100
C1688       C  0.13939386  0.41092905  0.90533822    -0.09600
C1689       C  0.13249247  0.41319486  0.87535131    -0.26200
S1690       S  0.12788121  0.41104386  0.70453193    -0.03400
C1691       C  0.13709479  0.40603219  0.68185393    -0.16800
C1692       C  0.14432270  0.40424813  0.71182032    -0.14800
H1693       H  0.15518696  0.40364846  0.79060264     0.20500
H1694       H  0.12292110  0.41560636  0.79611875     0.16600
H1695       H  0.12509586  0.41481338  0.88397128     0.19100
H1696       H  0.15053749  0.40098125  0.70348741     0.12400
C1697       C  0.14628026  0.40991774  0.33154814     0.16300
C1698       C  0.15023337  0.40775671  0.29131984    -0.32700
C1699       C  0.14481014  0.40904216  0.25300345     0.20700
C1700       C  0.13629605  0.41292995  0.25448296     0.02900
C1701       C  0.13242224  0.41519294  0.29466513    -0.22500
C1702       C  0.13739384  0.41331179  0.33303400     0.12100
S1703       S  0.15058466  0.40735527  0.38178530    -0.06100
C1704       C  0.13992923  0.41037473  0.40481707    -0.09600
C1705       C  0.13366874  0.41352068  0.37500826    -0.26200
S1706       S  0.13045751  0.41349491  0.20453696    -0.03400
C1707       C  0.13915455  0.40790190  0.18169201    -0.16800
C1708       C  0.14641408  0.40604242  0.21124935    -0.14800
H1709       H  0.15678084  0.40459423  0.29004755     0.20500
H1710       H  0.12538592  0.41771214  0.29601783     0.16600
H1711       H  0.12632090  0.41523096  0.38345997     0.19100
H1712       H  0.15231135  0.40240657  0.20274049     0.12400
C1713       C  0.09523250  0.44384490  0.55232826     0.16300
C1714       C  0.10493262  0.44242165  0.53655514    -0.32700
C1715       C  0.10472539  0.43138273  0.54649727     0.20700
C1716       C  0.09524878  0.42222396  0.57080490     0.02900
C1717       C  0.08575606  0.42375109  0.58714932    -0.22500
C1718       C  0.08597179  0.43471616  0.57736608     0.12100
S1719       S  0.09340056  0.45627482  0.54315544    -0.06100
C1720       C  0.08009452  0.44905209  0.57374949    -0.09600
C1721       C  0.07737037  0.43767309  0.58993908    -0.26200
S1722       S  0.09608909  0.40923530  0.57747811    -0.03400
C1723       C  0.10949462  0.41616014  0.54786769    -0.16800
C1724       C  0.11308550  0.42800176  0.53363133    -0.14800
H1725       H  0.11221538  0.44951676  0.51703082     0.20500
H1726       H  0.07838866  0.41659036  0.60621683     0.16600
H1727       H  0.06942967  0.43179660  0.60977582     0.19100
H1728       H  0.12113548  0.43364422  0.51395626     0.12400
C1729       C  0.00524890  0.44811225  0.73642420     0.16300
C1730       C  0.99804975  0.44406544  0.77445516    -0.32700
C1731       C  0.98525782  0.43669892  0.76913814     0.20700
C1732       C  0.97987337  0.43361188  0.72785538     0.02900
C1733       C  0.98702607  0.43794179  0.68996298    -0.22500
C1734       C  0.99978916  0.44518159  0.69523685     0.12100
S1735       S  0.02097412  0.45571617  0.73542394    -0.06100
C1736       C  0.02007904  0.45503259  0.67905532    -0.09600
C1737       C  0.00826311  0.44924915  0.66226753    -0.26200
S1738       S  0.96438046  0.42364890  0.72808616    -0.03400
C1739       C  0.96509045  0.42367823  0.78446895    -0.16800
C1740       C  0.97677677  0.43112762  0.80183993    -0.14800
H1741       H  0.00225916  0.44612108  0.80669943     0.20500
H1742       H  0.98286314  0.43535067  0.65769878     0.16600
H1743       H  0.00599673  0.44737171  0.62775553     0.19100
H1744       H  0.97902713  0.43196022  0.83644541     0.12400
C1745       C  0.00605112  0.41765077  0.48182262     0.16300
C1746       C  0.99821872  0.41321909  0.44508814    -0.32700
C1747       C  0.98549948  0.40760742  0.45233384     0.20700
C1748       C  0.98081488  0.40623919  0.49434652     0.02900
C1749       C  0.98859431  0.41026588  0.53100507    -0.22500
C1750       C  0.00127003  0.41611300  0.52371107     0.12100
S1751       S  0.02170427  0.42688102  0.47976415    -0.06100
C1752       C  0.02172831  0.42867180  0.53581825    -0.09600
C1753       C  0.01020690  0.42228753  0.55466787    -0.26200
S1754       S  0.96546095  0.40109476  0.49627346    -0.03400
C1755       C  0.96524735  0.40080767  0.43981486    -0.16800
C1756       C  0.97653061  0.40426495  0.42082599    -0.14800
H1757       H  0.00190497  0.41484550  0.41219048     0.20500
H1758       H  0.98497070  0.40966114  0.56363105     0.16600
H1759       H  0.00834116  0.42326453  0.58865354     0.19100
H1760       H  0.97831261  0.40545882  0.38594539     0.12400
C1761       C  0.10382117  0.43294245  0.05087508     0.16300
C1762       C  0.10126316  0.44257318  0.04741148    -0.32700
C1763       C  0.09002166  0.44056298  0.06416029     0.20700
C1764       C  0.08177953  0.42950022  0.08381180     0.02900
C1765       C  0.08430708  0.41988345  0.08707860    -0.22500
C1766       C  0.09544877  0.42183597  0.06993800     0.12100
S1767       S  0.11681314  0.43338543  0.03204319    -0.06100
C1768       C  0.11073419  0.41834748  0.04910921    -0.09600
C1769       C  0.09933403  0.41343175  0.06886872    -0.26200
S1770       S  0.06872364  0.42883561  0.10247586    -0.03400
C1771       C  0.07431712  0.44362272  0.08354206    -0.16800
C1772       C  0.08575661  0.44870684  0.06368957    -0.14800
H1773       H  0.10771207  0.45121633  0.03211332     0.20500
H1774       H  0.07781359  0.41120341  0.10206014     0.16600
H1775       H  0.09409799  0.40413470  0.08140350     0.19100
H1776       H  0.09069253  0.45786240  0.04980501     0.12400
C1777       C  0.98687243  0.44072272  0.25419070     0.16300
C1778       C  0.99896538  0.44903722  0.24137166    -0.32700
C1779       C  0.00184400  0.44922578  0.19683877     0.20700
C1780       C  0.99300699  0.44171915  0.16631327     0.02900
C1781       C  0.98089984  0.43363267  0.17896522    -0.22500
C1782       C  0.97812228  0.43318683  0.22353047     0.12100
S1783       S  0.98177331  0.43802885  0.30714866    -0.06100
C1784       C  0.96784271  0.42643386  0.28758392    -0.09600
C1785       C  0.96720295  0.42503079  0.24243929    -0.26200
S1786       S  0.99854154  0.44206835  0.11513839    -0.03400
C1787       C  0.01290894  0.45238164  0.13497646    -0.16800
C1788       C  0.01333903  0.45545590  0.17882678    -0.14800
H1789       H  0.00595210  0.45463607  0.26531353     0.20500
H1790       H  0.97410187  0.42745846  0.15546929     0.16600
H1791       H  0.95929052  0.41807789  0.22448155     0.19100
H1792       H  0.02171795  0.46106604  0.19729802     0.12400
C1793       C  0.07462054  0.48105504  0.80016269     0.16300
C1794       C  0.07453323  0.48651832  0.84033591    -0.32700
C1795       C  0.07296289  0.47974309  0.87878372     0.20700
C1796       C  0.07187709  0.46820251  0.87725770     0.02900
C1797       C  0.07219742  0.46286877  0.83732745    -0.22500
C1798       C  0.07338852  0.46945758  0.79896313     0.12100
S1799       S  0.07456049  0.48685950  0.74949744    -0.06100
C1800       C  0.07262487  0.47341750  0.72682950    -0.09600
C1801       C  0.07222567  0.46504912  0.75709139    -0.26200
S1802       S  0.06849981  0.46074658  0.92623845    -0.03400
C1803       C  0.06845711  0.47322260  0.94923720    -0.16800
C1804       C  0.07106041  0.48271472  0.92032603    -0.14800
H1805       H  0.07495351  0.49533387  0.84137894     0.20500
H1806       H  0.07082195  0.45364428  0.83602696     0.16600
H1807       H  0.07023543  0.45582215  0.74899011     0.19100
H1808       H  0.07055622  0.49083822  0.92845942     0.12400
C1809       C  0.05122487  0.46386928  0.30168770     0.16300
C1810       C  0.04599005  0.46163756  0.34317618    -0.32700
C1811       C  0.05369863  0.46784310  0.37850078     0.20700
C1812       C  0.06613334  0.47606837  0.37322069     0.02900
C1813       C  0.07142357  0.47843656  0.33110000    -0.22500
C1814       C  0.06364345  0.47206074  0.29531973     0.12100
S1815       S  0.04317457  0.45676096  0.25583417    -0.06100
C1816       C  0.05658557  0.46476713  0.22660110    -0.09600
C1817       C  0.06683043  0.47267556  0.25169806    -0.26200
S1818       S  0.07378426  0.48220605  0.42179488    -0.03400
C1819       C  0.06001797  0.47341740  0.44872131    -0.16800
C1820       C  0.05016714  0.46635232  0.42118028    -0.14800
H1821       H  0.03629874  0.45514700  0.34782833     0.20500
H1822       H  0.08114153  0.48477356  0.32654002     0.16600
H1823       H  0.07600257  0.47841885  0.23893484     0.19100
H1824       H  0.04084510  0.46015624  0.43190903     0.12400
C1825       C  0.97911597  0.40185047  0.97281648     0.16300
C1826       C  0.98770695  0.40541284  0.00700726    -0.32700
C1827       C  0.00018966  0.41252633  0.99620827     0.20700
C1828       C  0.00397470  0.41571316  0.95319688     0.02900
C1829       C  0.99541225  0.41164074  0.91881547    -0.22500
C1830       C  0.98293079  0.40477344  0.92970322     0.12100
S1831       S  0.96366184  0.39561742  0.98002296    -0.06100
C1832       C  0.96236686  0.39697923  0.92439544    -0.09600
C1833       C  0.97331611  0.40170013  0.90167187    -0.26200
S1834       S  0.01917350  0.42647226  0.94776285    -0.03400
C1835       C  0.02046681  0.42664016  0.00392861    -0.16800
C1836       C  0.00968459  0.41859172  0.02536099    -0.14800
H1837       H  0.98477162  0.40358922  0.04083489     0.20500
H1838       H  0.99829780  0.41454800  0.88543569     0.16600
H1839       H  0.97437040  0.40405327  0.86719361     0.19100
H1840       H  0.00851894  0.41839341  0.06058311     0.12400
C1841       C  0.11504218  0.34651525  0.89715448     0.16300
C1842       C  0.11274288  0.33958678  0.85847961    -0.32700
C1843       C  0.10639961  0.32668493  0.86220181     0.20700
C1844       C  0.10264997  0.32096724  0.90259814     0.02900
C1845       C  0.10528788  0.32788713  0.94122566    -0.22500
C1846       C  0.11149211  0.34073291  0.93750178     0.12100
S1847       S  0.12130256  0.36216430  0.89963410    -0.06100
C1848       C  0.11917470  0.36081034  0.95561814    -0.09600
C1849       C  0.11401100  0.34889033  0.97112716    -0.26200
S1850       S  0.09384338  0.30530156  0.90007019    -0.03400
C1851       C  0.09517648  0.30639171  0.84392296    -0.16800
C1852       C  0.10229895  0.31832307  0.82834152    -0.14800
H1853       H  0.11529965  0.34402160  0.82678850     0.20500
H1854       H  0.10216545  0.32343636  0.97270012     0.16600
H1855       H  0.11161770  0.34625410  0.00503454     0.19100
H1856       H  0.10369027  0.32079581  0.79398830     0.12400
C1857       C  0.08123342  0.33795134  0.60768832     0.16300
C1858       C  0.07543694  0.32506105  0.60867789    -0.32700
C1859       C  0.07394484  0.31948783  0.64969644     0.20700
C1860       C  0.07745657  0.32640114  0.68811275     0.02900
C1861       C  0.08306719  0.33923389  0.68715432    -0.22500
C1862       C  0.08512401  0.34483634  0.64610456     0.12100
S1863       S  0.08587630  0.34655464  0.56108856    -0.06100
C1864       C  0.09364575  0.35948270  0.59378700    -0.09600
C1865       C  0.09219083  0.35718952  0.63832952    -0.26200
S1866       S  0.07589941  0.31819780  0.73422305    -0.03400
C1867       C  0.07100262  0.30539760  0.70136029    -0.16800
C1868       C  0.07026111  0.30735640  0.65711067    -0.14800
H1869       H  0.07299268  0.31969615  0.57864615     0.20500
H1870       H  0.08644070  0.34466734  0.71695099     0.16600
H1871       H  0.09700075  0.36407013  0.66360723     0.19100
H1872       H  0.06789882  0.30048025  0.63165781     0.12400
C1873       C  0.11537326  0.34453050  0.40166299     0.16300
C1874       C  0.11343754  0.33752150  0.36365151    -0.32700
C1875       C  0.10682630  0.32467297  0.36771796     0.20700
C1876       C  0.10243307  0.31900492  0.40785924     0.02900
C1877       C  0.10474637  0.32601808  0.44615400    -0.22500
C1878       C  0.11124306  0.33887379  0.44198391     0.12100
S1879       S  0.12182614  0.36017664  0.40277671    -0.06100
C1880       C  0.11901979  0.35905554  0.45821107    -0.09600
C1881       C  0.11350129  0.34719985  0.47470331    -0.26200
S1882       S  0.09325520  0.30336105  0.40486198    -0.03400
C1883       C  0.09537959  0.30452666  0.34892140    -0.16800
C1884       C  0.10300102  0.31638623  0.33392434    -0.14800
H1885       H  0.11643800  0.34187739  0.33196797     0.20500
H1886       H  0.10114232  0.32166017  0.47747233     0.16600
H1887       H  0.11067706  0.34474735  0.50844323     0.19100
H1888       H  0.10489113  0.31891146  0.29971372     0.12400
C1889       C  0.07444023  0.25755494  0.46510676     0.16300
C1890       C  0.08105107  0.26086984  0.50486572    -0.32700
C1891       C  0.07449830  0.25941199  0.54380917     0.20700
C1892       C  0.06187401  0.25447885  0.54319998     0.02900
C1893       C  0.05530807  0.25129264  0.50351275    -0.22500
C1894       C  0.06190061  0.25312562  0.46456892     0.12100
S1895       S  0.08075631  0.25944256  0.41405990    -0.06100
C1896       C  0.06645342  0.25471027  0.39182437    -0.09600
C1897       C  0.05730076  0.25159613  0.42268355    -0.26200
S1898       S  0.05554320  0.25329316  0.59368826    -0.03400
C1899       C  0.07007549  0.25987424  0.61606055    -0.16800
C1900       C  0.07929750  0.26270451  0.58556872    -0.14800
H1901       H  0.09091104  0.26472417  0.50530920     0.20500
H1902       H  0.04551202  0.24782777  0.50294811     0.16600
H1903       H  0.04788861  0.24890562  0.41485924     0.19100
H1904       H  0.08897356  0.26696306  0.59353118     0.12400
C1905       C  0.05924106  0.25190085  0.97040942     0.16300
C1906       C  0.05513230  0.25112706  0.01363803    -0.32700
C1907       C  0.06383281  0.25471094  0.04754929     0.20700
C1908       C  0.07608595  0.25882949  0.03876640     0.02900
C1909       C  0.08010757  0.25915138  0.99561359    -0.22500
C1910       C  0.07141252  0.25563342  0.96163645     0.12100
S1911       S  0.05053969  0.24986631  0.92479362    -0.06100
C1912       C  0.06337505  0.25398300  0.89337097    -0.09600
C1913       C  0.07377585  0.25656415  0.91735230    -0.26200
S1914       S  0.08541466  0.26398571  0.08398144    -0.03400
C1915       C  0.07263251  0.26026584  0.11523846    -0.16800
C1916       C  0.06176146  0.25533477  0.09147269    -0.14800
H1917       H  0.04566601  0.24839016  0.02041834     0.20500
H1918       H  0.08970548  0.26252560  0.98867429     0.16600
H1919       H  0.08281919  0.26004815  0.90338318     0.19100
H1920       H  0.05290345  0.25280253  0.10536947     0.12400
C1921       C  0.08350419  0.33820941  0.10775954     0.16300
C1922       C  0.07875643  0.32543689  0.10849389    -0.32700
C1923       C  0.07619960  0.31965108  0.14948238     0.20700
C1924       C  0.07759876  0.32615998  0.18792832     0.02900
C1925       C  0.08230137  0.33894410  0.18718090    -0.22500
C1926       C  0.08557181  0.34485772  0.14634249     0.12100
S1927       S  0.08895048  0.34707788  0.06196668    -0.06100
C1928       C  0.09485144  0.35994288  0.09523366    -0.09600
C1929       C  0.09216919  0.35737033  0.13938147    -0.26200
S1930       S  0.07474463  0.31760691  0.23445108    -0.03400
C1931       C  0.07231631  0.30531900  0.20193552    -0.16800
C1932       C  0.07325674  0.30771744  0.15732115    -0.14800
H1933       H  0.07786322  0.32036915  0.07859475     0.20500
H1934       H  0.08409451  0.34416089  0.21734889     0.16600
H1935       H  0.09569964  0.36423825  0.16527530     0.19100
H1936       H  0.07253787  0.30129366  0.13211400     0.12400
C1937       C  0.87762243  0.21990793  0.55924834     0.16300
C1938       C  0.88054732  0.21662300  0.59946010    -0.32700
C1939       C  0.88868332  0.21209533  0.59885562     0.20700
C1940       C  0.89351691  0.21071402  0.55986948     0.02900
C1941       C  0.89040127  0.21374985  0.51966017    -0.22500
C1942       C  0.88244049  0.21845294  0.52034659     0.12100
S1943       S  0.86926418  0.22708269  0.55346169    -0.06100
C1944       C  0.87221975  0.22797270  0.49817291    -0.09600
C1945       C  0.87933745  0.22304779  0.48516103    -0.26200
S1946       S  0.90404664  0.20615848  0.56611121    -0.03400
C1947       C  0.90204798  0.20622160  0.62194649    -0.16800
C1948       C  0.89346200  0.20939102  0.63471781    -0.14800
H1949       H  0.87707919  0.21805362  0.63000189     0.20500
H1950       H  0.89442794  0.21298711  0.48936103     0.16600
H1951       H  0.88278246  0.22361560  0.45224297     0.19100
H1952       H  0.89131567  0.21028789  0.66839340     0.12400
C1953       C  0.98853931  0.21981162  0.72766203     0.16300
C1954       C  0.00015671  0.22120735  0.73584110    -0.32700
C1955       C  0.01036916  0.23323757  0.73661846     0.20700
C1956       C  0.00904072  0.24337927  0.72918972     0.02900
C1957       C  0.99747240  0.24198451  0.72090121    -0.22500
C1958       C  0.98728540  0.23000789  0.72061010     0.12100
S1959       S  0.97495183  0.20606553  0.72578084    -0.06100
C1960       C  0.96751940  0.21418708  0.71598425    -0.09600
C1961       C  0.97528643  0.22685406  0.71405311    -0.26200
S1962       S  0.02238985  0.25719468  0.73242139    -0.03400
C1963       C  0.02995621  0.24932989  0.74431233    -0.16800
C1964       C  0.02239504  0.23659561  0.74519547    -0.14800
H1965       H  0.00117365  0.21327969  0.74174883     0.20500
H1966       H  0.99643749  0.24992210  0.71543235     0.16600
H1967       H  0.97231299  0.23343160  0.70792825     0.19100
H1968       H  0.02548086  0.23017200  0.75255292     0.12400
C1969       C  0.91103230  0.24652868  0.86972192     0.16300
C1970       C  0.91747427  0.24018306  0.86718178    -0.32700
C1971       C  0.92190819  0.23930188  0.82610170     0.20700
C1972       C  0.92059152  0.24504476  0.78947997     0.02900
C1973       C  0.91449369  0.25178435  0.79236376    -0.22500
C1974       C  0.90947222  0.25212223  0.83308319     0.12100
S1975       S  0.90281142  0.24627399  0.91427436    -0.06100
C1976       C  0.89700557  0.25358997  0.88331939    -0.09600
C1977       C  0.90142795  0.25628052  0.84082666    -0.26200
S1978       S  0.92489754  0.24122949  0.74149988    -0.03400
C1979       C  0.92784725  0.23129952  0.77085634    -0.16800
C1980       C  0.92621211  0.23156546  0.81571116    -0.14800
H1981       H  0.91806650  0.23523445  0.89520345     0.20500
H1982       H  0.91283961  0.25569732  0.76338789     0.16600
H1983       H  0.89807052  0.25998543  0.81593479     0.19100
H1984       H  0.92684725  0.22540688  0.83893604     0.12400
C1985       C  0.87772715  0.22054376  0.07467319     0.16300
C1986       C  0.88210818  0.21807929  0.11339383    -0.32700
C1987       C  0.89026505  0.21361642  0.10944547     0.20700
C1988       C  0.89387316  0.21163707  0.06877643     0.02900
C1989       C  0.88935280  0.21392339  0.03007480    -0.22500
C1990       C  0.88122934  0.21842203  0.03403014     0.12100
S1991       S  0.86891657  0.22733884  0.07234015    -0.06100
C1992       C  0.86981320  0.22713541  0.01607151    -0.09600
C1993       C  0.87664441  0.22211725  0.00033820    -0.26200
S1994       S  0.90440938  0.20691221  0.07099369    -0.03400
C1995       C  0.90391543  0.20755449  0.12736062    -0.16800
C1996       C  0.89593800  0.21120749  0.14319527    -0.14800
H1997       H  0.87958048  0.21993185  0.14521278     0.20500
H1998       H  0.89231926  0.21259987  0.99825924     0.16600
H1999       H  0.87892774  0.22207317  0.96614398     0.19100
H2000       H  0.89463148  0.21238900  0.17757449     0.12400
C2001       C  0.98935138  0.21799026  0.22884873     0.16300
C2002       C  0.00121572  0.21972788  0.23375071    -0.32700
C2003       C  0.01107585  0.23191407  0.23785452     0.20700
C2004       C  0.00917643  0.24185691  0.23710473     0.02900
C2005       C  0.99739066  0.24011381  0.23259710    -0.22500
C2006       C  0.98760631  0.22802277  0.22854009     0.12100
S2007       S  0.97605305  0.20408246  0.22207763    -0.06100
C2008       C  0.96820977  0.21202183  0.21888030    -0.09600
C2009       C  0.97558856  0.22466843  0.22316942    -0.26200
S2010       S  0.02215050  0.25589387  0.24238201    -0.03400
C2011       C  0.03036098  0.24839777  0.24607872    -0.16800
C2012       C  0.02328751  0.23563300  0.24306898    -0.14800
H2013       H  0.00270342  0.21196620  0.23412385     0.20500
H2014       H  0.99590530  0.24788017  0.23208169     0.16600
H2015       H  0.97234590  0.23116337  0.22165373     0.19100
H2016       H  0.02686803  0.22942740  0.24505816     0.12400
C2017       C  0.92249664  0.17992212  0.00096339     0.16300
C2018       C  0.91597751  0.17733177  0.96133062    -0.32700
C2019       C  0.92277465  0.18167068  0.92257669     0.20700
C2020       C  0.93551120  0.18789862  0.92303704     0.02900
C2021       C  0.94204307  0.19055478  0.96272345    -0.22500
C2022       C  0.93523440  0.18663359  0.00165087     0.12100
S2023       S  0.91589841  0.17636716  0.05161335    -0.06100
C2024       C  0.93040276  0.18450103  0.07404897    -0.09600
C2025       C  0.93983275  0.18940011  0.04362808    -0.26200
S2026       S  0.94203611  0.19238414  0.87244169    -0.03400
C2027       C  0.92746406  0.18617703  0.85064131    -0.16800
C2028       C  0.91810571  0.18078629  0.88118225    -0.14800
H2029       H  0.90603183  0.17249972  0.96085817     0.20500
H2030       H  0.95198856  0.19580257  0.96331572     0.16600
H2031       H  0.94947735  0.19515066  0.05177494     0.19100
H2032       H  0.90840961  0.17652792  0.87352530     0.12400
C2033       C  0.92430040  0.17824067  0.50101542     0.16300
C2034       C  0.91818877  0.17374177  0.46075485    -0.32700
C2035       C  0.92466049  0.17948958  0.42236032     0.20700
C2036       C  0.93685560  0.18886109  0.42391764     0.02900
C2037       C  0.94295322  0.19331112  0.46405052    -0.22500
C2038       C  0.93631757  0.18798115  0.50240394     0.12100
S2039       S  0.91769976  0.17351860  0.55146529    -0.06100
C2040       C  0.93108122  0.18517951  0.57431280    -0.09600
C2041       C  0.94022553  0.19202946  0.54430050    -0.26200
S2042       S  0.94303941  0.19492053  0.37411979    -0.03400
C2043       C  0.92891241  0.18515604  0.35105012    -0.16800
C2044       C  0.91999246  0.17740070  0.38045243    -0.14800
H2045       H  0.90864361  0.16648961  0.45951922     0.20500
H2046       H  0.95229946  0.20098921  0.46537135     0.16600
H2047       H  0.94906482  0.19994654  0.55257159     0.19100
H2048       H  0.91055300  0.17084585  0.37175294     0.12400
C2049       C  0.92258059  0.24579834  0.27902440     0.16300
C2050       C  0.91610063  0.25218669  0.27820389    -0.32700
C2051       C  0.91204876  0.25433400  0.31837255     0.20700
C2052       C  0.91505483  0.25099216  0.35772954     0.02900
C2053       C  0.92169292  0.24478770  0.35857038    -0.22500
C2054       C  0.92500497  0.24189752  0.31829999     0.12100
S2055       S  0.92615482  0.24027967  0.23362651    -0.06100
C2056       C  0.93013313  0.23190721  0.26767615    -0.09600
C2057       C  0.92931892  0.23390301  0.31202095    -0.26200
S2058       S  0.90815741  0.25301741  0.40241155    -0.03400
C2059       C  0.90069746  0.25793515  0.36791285    -0.16800
C2060       C  0.90371633  0.25825814  0.32398899    -0.14800
H2061       H  0.91347664  0.25448254  0.24739664     0.20500
H2062       H  0.92329363  0.24144909  0.38912244     0.16600
H2063       H  0.93074456  0.22893721  0.33814202     0.19100
H2064       H  0.89920838  0.26013164  0.29735489     0.12400
C2065       C  0.25516416  0.20088452  0.02385678     0.16300
C2066       C  0.25650203  0.20550083  0.98129267    -0.32700
C2067       C  0.25701850  0.19840285  0.94685275     0.20700
C2068       C  0.25588733  0.18699281  0.95415875     0.02900
C2069       C  0.25442873  0.18229391  0.99694822    -0.22500
C2070       C  0.25423311  0.18958460  0.03171790     0.12100
S2071       S  0.25572862  0.20885050  0.06982131    -0.06100
C2072       C  0.25492698  0.19700296  0.10061685    -0.09600
C2073       C  0.25400893  0.18724508  0.07596656    -0.26200
S2074       S  0.25750880  0.18021823  0.90779591    -0.03400
C2075       C  0.25997628  0.19302683  0.87888527    -0.16800
C2076       C  0.25943205  0.20192911  0.90386835    -0.14800
H2077       H  0.25761821  0.21450349  0.97545792     0.20500
H2078       H  0.25394904  0.17358055  0.00300174     0.16600
H2079       H  0.25398248  0.17928766  0.08956884     0.19100
H2080       H  0.26122221  0.21074981  0.89149771     0.12400
C2081       C  0.26805416  0.19093988  0.45144038     0.16300
C2082       C  0.27275943  0.19186131  0.49371403    -0.32700
C2083       C  0.26636194  0.19321466  0.52861728     0.20700
C2084       C  0.25552755  0.19331019  0.52214312     0.02900
C2085       C  0.25079335  0.19239577  0.47953772    -0.22500
C2086       C  0.25740442  0.19135078  0.44425579     0.12100
S2087       S  0.27507894  0.19012996  0.40511490    -0.06100
C2088       C  0.26379793  0.19069000  0.37498513    -0.09600
C2089       C  0.25488329  0.19120219  0.40014621    -0.26200
S2090       S  0.24944114  0.19540414  0.56945272    -0.03400
C2091       C  0.26186968  0.19655010  0.59751975    -0.16800
C2092       C  0.27005803  0.19513852  0.57151609    -0.14800
H2093       H  0.28127228  0.19189815  0.49905661     0.20500
H2094       H  0.24253548  0.19282756  0.47405448     0.16600
H2095       H  0.24729384  0.19192220  0.38695969     0.19100
H2096       H  0.27850851  0.19585658  0.58331374     0.12400
C2097       C  0.12146008  0.26163036  0.76611518     0.16300
C2098       C  0.12953811  0.25698007  0.76355508    -0.32700
C2099       C  0.14191370  0.26486886  0.77573076     0.20700
C2100       C  0.14593616  0.27676422  0.79039641     0.02900
C2101       C  0.13788196  0.28135129  0.79328651    -0.22500
C2102       C  0.12563369  0.27357428  0.78045306     0.12100
S2103       S  0.10625288  0.25387595  0.75083837    -0.06100
C2104       C  0.10563413  0.26696661  0.76316332    -0.09600
C2105       C  0.11665472  0.27666776  0.77884806    -0.26200
S2106       S  0.16128214  0.28517653  0.80140252    -0.03400
C2107       C  0.16253798  0.27266885  0.78561814    -0.16800
C2108       C  0.15141939  0.26241599  0.77317515    -0.14800
H2109       H  0.12638514  0.24773280  0.75160205     0.20500
H2110       H  0.14111509  0.29072697  0.80399747     0.16600
H2111       H  0.11810177  0.28564853  0.78790262     0.19100
H2112       H  0.15043392  0.25385213  0.76111313     0.12400
C2113       C  0.23663726  0.25078019  0.75116061     0.16300
C2114       C  0.24635267  0.24917670  0.73706408    -0.32700
C2115       C  0.24507695  0.23747086  0.74204458     0.20700
C2116       C  0.23463132  0.22783523  0.76064361     0.02900
C2117       C  0.22485082  0.22939805  0.77415420    -0.22500
C2118       C  0.22607321  0.24106827  0.76884113     0.12100
S2119       S  0.23654667  0.26432262  0.74912874    -0.06100
C2120       C  0.22202452  0.25683163  0.77173406    -0.09600
C2121       C  0.21761089  0.24444754  0.78035984    -0.26200
S2122       S  0.23506044  0.21450695  0.76560784    -0.03400
C2123       C  0.24938435  0.22186676  0.74165661    -0.16800
C2124       C  0.25352701  0.23407430  0.73068072    -0.14800
H2125       H  0.25458729  0.25675344  0.72310922     0.20500
H2126       H  0.21667144  0.22185609  0.78851888     0.16600
H2127       H  0.20877784  0.23829736  0.79496966     0.19100
H2128       H  0.26234608  0.24020191  0.71591094     0.12400
C2129       C  0.14491852  0.27403918  0.29155645     0.16300
C2130       C  0.13650189  0.27793925  0.29893806    -0.32700
C2131       C  0.12462489  0.27061882  0.28235924     0.20700
C2132       C  0.12109216  0.25971069  0.25995585     0.02900
C2133       C  0.12951842  0.25564833  0.25317300    -0.22500
C2134       C  0.14156008  0.26313608  0.26930874     0.12100
S2135       S  0.15998493  0.28237112  0.30592531    -0.06100
C2136       C  0.16199272  0.27114342  0.28171753    -0.09600
C2137       C  0.15137781  0.26133095  0.26394732    -0.26200
S2138       S  0.10629954  0.25265573  0.24039857    -0.03400
C2139       C  0.10511962  0.26471571  0.26213636    -0.16800
C2140       C  0.11554567  0.27347459  0.28389196    -0.14800
H2141       H  0.13922371  0.28656826  0.31566028     0.20500
H2142       H  0.12692225  0.24725620  0.23503290     0.16600
H2143       H  0.15099190  0.25363406  0.24645040     0.19100
H2144       H  0.11657847  0.28176787  0.29894917     0.12400
C2145       C  0.23650513  0.25042152  0.27722734     0.16300
C2146       C  0.24659827  0.24886602  0.27007169    -0.32700
C2147       C  0.24448022  0.23680860  0.26817936     0.20700
C2148       C  0.23281716  0.22666247  0.27304945     0.02900
C2149       C  0.22267565  0.22821706  0.28062057    -0.22500
C2150       C  0.22481056  0.24034292  0.28252029     0.12100
S2151       S  0.23726828  0.26435563  0.27985115    -0.06100
C2152       C  0.22164060  0.25663264  0.28829162    -0.09600
C2153       C  0.21621364  0.24385988  0.28895530    -0.26200
S2154       S  0.23228456  0.21280431  0.26776847    -0.03400
C2155       C  0.24796380  0.22084369  0.25930030    -0.16800
C2156       C  0.25315841  0.23354393  0.26064056    -0.14800
H2157       H  0.25572755  0.25673940  0.26580339     0.20500
H2158       H  0.21352653  0.22034172  0.28440462     0.16600
H2159       H  0.20650872  0.23749901  0.29380433     0.19100
H2160       H  0.26279319  0.24009870  0.25525089     0.12400
C2161       C  0.19168255  0.25759590  0.57319599     0.16300
C2162       C  0.19542570  0.25504634  0.53320839    -0.32700
C2163       C  0.19095770  0.25742520  0.49451348     0.20700
C2164       C  0.18255277  0.26145397  0.49555527     0.02900
C2165       C  0.17871571  0.26388702  0.53557827    -0.22500
C2166       C  0.18374900  0.26220489  0.57421044     0.12100
S2167       S  0.19723942  0.25675558  0.62338259    -0.06100
C2168       C  0.18931173  0.26328057  0.64572070    -0.09600
C2169       C  0.18241919  0.26557193  0.61578886    -0.26200
S2170       S  0.17887341  0.26459969  0.44515190    -0.03400
C2171       C  0.18926347  0.26111615  0.42267422    -0.16800
C2172       C  0.19490751  0.25729535  0.45273489    -0.14800
H2173       H  0.20209863  0.25203917  0.53227495     0.20500
H2174       H  0.17264277  0.26763163  0.53645147     0.16600
H2175       H  0.17707955  0.26987137  0.62380815     0.19100
H2176       H  0.20204044  0.25522964  0.44470382     0.12400
C2177       C  0.18774297  0.26427629  0.99550173     0.16300
C2178       C  0.18276745  0.26510037  0.03553677    -0.32700
C2179       C  0.18882405  0.26505333  0.07410415     0.20700
C2180       C  0.19919639  0.26390857  0.07301644     0.02900
C2181       C  0.20427392  0.26326022  0.03294237    -0.22500
C2182       C  0.19838548  0.26361419  0.99432395     0.12100
S2183       S  0.18204519  0.26469370  0.94506637    -0.06100
C2184       C  0.19435890  0.26440405  0.92212156    -0.09600
C2185       C  0.20228934  0.26379895  0.95226406    -0.26200
S2186       S  0.20514578  0.26398168  0.12353023    -0.03400
C2187       C  0.19375224  0.26593779  0.14615320    -0.16800
C2188       C  0.18576560  0.26640251  0.11599848    -0.14800
H2189       H  0.17465746  0.26597752  0.03655789     0.20500
H2190       H  0.21257973  0.26273130  0.03189632     0.16600
H2191       H  0.21063990  0.26382265  0.94385114     0.19100
H2192       H  0.17823563  0.26784079  0.12432716     0.12400
C2193       C  0.31740579  0.22217750  0.07690072     0.16300
C2194       C  0.32413682  0.22737276  0.03879539    -0.32700
C2195       C  0.33609913  0.22942228  0.03703961     0.20700
C2196       C  0.34108301  0.22603995  0.07111253     0.02900
C2197       C  0.33423290  0.22058889  0.10905822    -0.22500
C2198       C  0.32238068  0.21895227  0.11145386     0.12100
S2199       S  0.30332999  0.22040393  0.08703214    -0.06100
C2200       C  0.30425532  0.21563509  0.13896983    -0.09600
C2201       C  0.31479853  0.21509719  0.14719560    -0.26200
S2202       S  0.35620534  0.23039571  0.06394804    -0.03400
C2203       C  0.35573059  0.23696296  0.01510522    -0.16800
C2204       C  0.34447332  0.23569504  0.00502619    -0.14800
H2205       H  0.32040530  0.23032182  0.01229096     0.20500
H2206       H  0.33822017  0.21831721  0.13656381     0.16600
H2207       H  0.31704568  0.21254211  0.17838020     0.19100
H2208       H  0.34271170  0.23984208  0.97661685     0.12400
C2209       C  0.34595750  0.26615872  0.83556651     0.16300
C2210       C  0.33764977  0.26215676  0.80030299    -0.32700
C2211       C  0.32505270  0.25575511  0.80993625     0.20700
C2212       C  0.32089136  0.25393625  0.85281775     0.02900
C2213       C  0.32921191  0.25850939  0.88802027    -0.22500
C2214       C  0.34179726  0.26436650  0.87845103     0.12100
S2215       S  0.36123590  0.27099570  0.83076074    -0.06100
C2216       C  0.36201089  0.27041396  0.88696493    -0.09600
C2217       C  0.35101967  0.26697717  0.90801716    -0.26200
S2218       S  0.30550617  0.24374334  0.85806185    -0.03400
C2219       C  0.30467789  0.24176615  0.80206581    -0.16800
C2220       C  0.31574247  0.24895125  0.78070827    -0.14800
H2221       H  0.34084535  0.26288338  0.76684190     0.20500
H2222       H  0.32598527  0.25646363  0.92162395     0.16600
H2223       H  0.34949818  0.26493372  0.94274803     0.19100
H2224       H  0.31719646  0.24802003  0.74622141     0.12400
C2225       C  0.35014148  0.24077449  0.61691646     0.16300
C2226       C  0.34291871  0.23950572  0.65352402    -0.32700
C2227       C  0.33145790  0.22868181  0.65676964     0.20700
C2228       C  0.32742692  0.21934469  0.62571286     0.02900
C2229       C  0.33471233  0.22059330  0.58904165    -0.22500
C2230       C  0.34608248  0.23160861  0.58516816     0.12100
S2231       S  0.36388272  0.25363454  0.60560299    -0.06100
C2232       C  0.36410939  0.24680411  0.55685944    -0.09600
C2233       C  0.35407310  0.23502991  0.55043974    -0.26200
S2234       S  0.31277817  0.20736219  0.63446239    -0.03400
C2235       C  0.31208050  0.21522604  0.67971048    -0.16800
C2236       C  0.32271114  0.22638417  0.68766361    -0.14800
H2237       H  0.34588643  0.24680090  0.67747049     0.20500
H2238       H  0.33148067  0.21355454  0.56398015     0.16600
H2239       H  0.35252282  0.22947212  0.52145156     0.19100
H2240       H  0.32369445  0.23278291  0.71312447     0.12400
C2241       C  0.41600844  0.27232563  0.66263729     0.16300
C2242       C  0.41678821  0.26727908  0.70278648    -0.32700
C2243       C  0.41231135  0.27018668  0.74045180     0.20700
C2244       C  0.40746827  0.27792587  0.73809598     0.02900
C2245       C  0.40706410  0.28325890  0.69843499    -0.22500
C2246       C  0.41132317  0.28019071  0.66089907     0.12100
S2247       S  0.41924724  0.26861965  0.61220669    -0.06100
C2248       C  0.41406483  0.27764143  0.58881504    -0.09600
C2249       C  0.41038356  0.28341096  0.61893769    -0.26200
S2250       S  0.40122299  0.27928824  0.78566539    -0.03400
C2251       C  0.40522938  0.26942611  0.80950467    -0.16800
C2252       C  0.41121445  0.26538717  0.78186339    -0.14800
H2253       H  0.42016760  0.26090030  0.70423771     0.20500
H2254       H  0.40301011  0.28906109  0.69651873     0.16600
H2255       H  0.40634779  0.28896859  0.61044736     0.19100
H2256       H  0.41392266  0.25876746  0.79081991     0.12400
C2257       C  0.39793205  0.26060759  0.23739057     0.16300
C2258       C  0.39332278  0.25641329  0.19531427    -0.32700
C2259       C  0.40040467  0.26329342  0.15984366     0.20700
C2260       C  0.41168121  0.27394946  0.16549734     0.02900
C2261       C  0.41633803  0.27823034  0.20808318    -0.22500
C2262       C  0.40915459  0.27128168  0.24400717     0.12100
S2263       S  0.39044479  0.25335839  0.28391804    -0.06100
C2264       C  0.40249303  0.26469642  0.31367840    -0.09600
C2265       C  0.41182309  0.27375603  0.28815537    -0.26200
S2266       S  0.41841333  0.28111005  0.11698142    -0.03400
C2267       C  0.40572486  0.26965958  0.08968521    -0.16800
C2268       C  0.39700409  0.26081007  0.11687857    -0.14800
H2269       H  0.38447487  0.24815179  0.19040948     0.20500
H2270       H  0.42506160  0.28662626  0.21298339     0.16600
H2271       H  0.42003776  0.28165749  0.30110118     0.19100
H2272       H  0.38828839  0.25317538  0.10575053     0.12400
C2273       C  0.33837748  0.25566432  0.39491542     0.16300
C2274       C  0.32557541  0.24814150  0.39363642    -0.32700
C2275       C  0.31972656  0.24636255  0.35294806     0.20700
C2276       C  0.32624185  0.25236331  0.31562654     0.02900
C2277       C  0.33904746  0.25997041  0.31698334    -0.22500
C2278       C  0.34497699  0.26117851  0.35717166     0.12100
S2279       S  0.34723186  0.25749213  0.43972543    -0.06100
C2280       C  0.35993741  0.26522910  0.40684587    -0.09600
C2281       C  0.35741022  0.26658069  0.36372814    -0.26200
S2282       S  0.31765078  0.24812570  0.26873469    -0.03400
C2283       C  0.30534692  0.23761520  0.29925932    -0.16800
C2284       C  0.30771478  0.23787514  0.34374223    -0.14800
H2285       H  0.32049364  0.24323744  0.42251388     0.20500
H2286       H  0.34422809  0.26408474  0.28739736     0.16600
H2287       H  0.36423531  0.27063342  0.33813115     0.19100
H2288       H  0.30127315  0.23150432  0.36744913     0.12400
C2289       C  0.43360753  0.32712414  0.92938501     0.16300
C2290       C  0.44363212  0.33856235  0.91708699    -0.32700
C2291       C  0.44270352  0.34913033  0.92373410     0.20700
C2292       C  0.43224203  0.34829560  0.94189350     0.02900
C2293       C  0.42229668  0.33690376  0.95462629    -0.22500
C2294       C  0.42323064  0.32636601  0.94797730     0.12100
S2295       S  0.43272536  0.31318101  0.92270504    -0.06100
C2296       C  0.41827062  0.30626566  0.94558304    -0.09600
C2297       C  0.41444936  0.31445326  0.95763486    -0.26200
S2298       S  0.43258641  0.36199517  0.94547610    -0.03400
C2299       C  0.44700195  0.36904074  0.92220959    -0.16800
C2300       C  0.45127569  0.36105591  0.91262668    -0.14800
H2301       H  0.45173244  0.33917477  0.90242949     0.20500
H2302       H  0.41410861  0.33626572  0.96860699     0.16600
H2303       H  0.40563026  0.31180841  0.97214474     0.19100
H2304       H  0.45998598  0.36375378  0.89713500     0.12400
C2305       C  0.43512313  0.33091161  0.42844283     0.16300
C2306       C  0.44547189  0.34286348  0.42822066    -0.32700
C2307       C  0.44384131  0.35259183  0.41418136     0.20700
C2308       C  0.43242922  0.35043924  0.40048077     0.02900
C2309       C  0.42207228  0.33853499  0.40130060    -0.22500
C2310       C  0.42366749  0.32884286  0.41576243     0.12100
S2311       S  0.43514473  0.31789599  0.44436532    -0.06100
C2312       C  0.41950088  0.30957792  0.43476840    -0.09600
C2313       C  0.41465592  0.31664828  0.41955730    -0.26200
S2314       S  0.43236091  0.36330627  0.38316340    -0.03400
C2315       C  0.44783916  0.37181061  0.39504324    -0.16800
C2316       C  0.45271868  0.36489274  0.41169574    -0.14800
H2317       H  0.45439569  0.34450262  0.43857631     0.20500
H2318       H  0.41314202  0.33690061  0.39106626     0.16600
H2319       H  0.40504347  0.31308165  0.41202161     0.19100
H2320       H  0.46225459  0.36862830  0.42088966     0.12400
C2321       C  0.46275641  0.40275884  0.68564484     0.16300
C2322       C  0.45799122  0.40306493  0.64462235    -0.32700
C2323       C  0.46566312  0.40583555  0.60833948     0.20700
C2324       C  0.47756532  0.40806238  0.61229194     0.02900
C2325       C  0.48243427  0.40790630  0.65376998    -0.22500
C2326       C  0.47475374  0.40529155  0.69047894     0.12100
S2327       S  0.45472573  0.39962740  0.73304621    -0.06100
C2328       C  0.46765658  0.40195200  0.76054659    -0.09600
C2329       C  0.47771184  0.40499895  0.73387883    -0.26200
S2330       S  0.48524923  0.41124280  0.56335131    -0.03400
C2331       C  0.47232981  0.40982161  0.53801325    -0.16800
C2332       C  0.46265711  0.40688837  0.56617850    -0.14800
H2333       H  0.44869057  0.40130906  0.64117260     0.20500
H2334       H  0.49178848  0.40984057  0.65729787     0.16600
H2335       H  0.48662796  0.40692702  0.74554253     0.19100
H2336       H  0.45387902  0.40574970  0.55635239     0.12400
C2337       C  0.48345261  0.41902329  0.18439989     0.16300
C2338       C  0.48556349  0.42494848  0.14394076    -0.32700
C2339       C  0.48367461  0.41788909  0.10608007     0.20700
C2340       C  0.48008590  0.40550707  0.10825613     0.02900
C2341       C  0.47808770  0.39957928  0.14892008    -0.22500
C2342       C  0.47975620  0.40660947  0.18695852     0.12100
S2343       S  0.48371150  0.42570868  0.23322886    -0.06100
C2344       C  0.47867424  0.41165896  0.25769921    -0.09600
C2345       C  0.47706965  0.40231759  0.22929462    -0.26200
S2346       S  0.47754735  0.39844200  0.05818416    -0.03400
C2347       C  0.48115940  0.41228169  0.03430644    -0.16800
C2348       C  0.48431870  0.42182265  0.06387798    -0.14800
H2349       H  0.48805960  0.43453886  0.14200261     0.20500
H2350       H  0.47490583  0.38982080  0.15074642     0.16600
H2351       H  0.47314312  0.39274438  0.23845277     0.19100
H2352       H  0.48646949  0.43104023  0.05506752     0.12400
C2353       C  0.18313420  0.39326682  0.55823543     0.16300
C2354       C  0.19110695  0.38869526  0.56440646    -0.32700
C2355       C  0.20375158  0.39714901  0.56468667     0.20700
C2356       C  0.20833879  0.40961693  0.55792057     0.02900
C2357       C  0.20031015  0.41423830  0.55218635    -0.22500
C2358       C  0.18757640  0.40576949  0.55298908     0.12100
S2359       S  0.16754169  0.38439457  0.55788867    -0.06100
C2360       C  0.16678520  0.39762783  0.55191402    -0.09600
C2361       C  0.17818955  0.40836733  0.54963313    -0.26200
S2362       S  0.22409644  0.41822178  0.55826437    -0.03400
C2363       C  0.22439457  0.40490582  0.56910355    -0.16800
C2364       C  0.21287005  0.39443287  0.57163827    -0.14800
H2365       H  0.18758494  0.37894806  0.56931320     0.20500
H2366       H  0.20382681  0.42399627  0.54774192     0.16600
H2367       H  0.17953226  0.41753236  0.54610331     0.19100
H2368       H  0.21125519  0.38525839  0.57796396     0.12400
C2369       C  0.21746089  0.34156620  0.47722447     0.16300
C2370       C  0.21172229  0.32888427  0.46832199    -0.32700
C2371       C  0.21130795  0.32521595  0.42452726     0.20700
C2372       C  0.21578267  0.33376530  0.39087705     0.02900
C2373       C  0.22136025  0.34641152  0.39967662    -0.22500
C2374       C  0.22237137  0.35009981  0.44361661     0.12100
S2375       S  0.22065273  0.34794876  0.52858981    -0.06100
C2376       C  0.22908758  0.36217042  0.50447794    -0.09600
C2377       C  0.22910222  0.36193892  0.45911667    -0.26200
S2378       S  0.21507097  0.32761945  0.34034921    -0.03400
C2379       C  0.20922961  0.31343162  0.36490813    -0.16800
C2380       C  0.20757014  0.31349170  0.40981116    -0.14800
H2381       H  0.20841885  0.32222353  0.49462907     0.20500
H2382       H  0.22539896  0.35311173  0.37363579     0.16600
H2383       H  0.23448276  0.36992831  0.43873767     0.19100
H2384       H  0.20424491  0.30549331  0.43069866     0.12400
C2385       C  0.26025254  0.35233361  0.67886260     0.16300
C2386       C  0.25666486  0.34406386  0.71402838    -0.32700
C2387       C  0.24934571  0.33142982  0.70446626     0.20700
C2388       C  0.24623640  0.32720251  0.66165440     0.02900
C2389       C  0.25044869  0.33541453  0.62642645    -0.22500
C2390       C  0.25725022  0.34804541  0.63608436     0.12100
S2391       S  0.26596819  0.36784082  0.68438580    -0.06100
C2392       C  0.26406767  0.36847000  0.62872294    -0.09600
C2393       C  0.25968260  0.35730391  0.60718684    -0.26200
S2394       S  0.23540399  0.31195091  0.65704636    -0.03400
C2395       C  0.23493421  0.31121921  0.71337157    -0.16800
C2396       C  0.24306906  0.32220904  0.73433126    -0.14800
H2397       H  0.25843839  0.34737577  0.74758231     0.20500
H2398       H  0.24750050  0.33216637  0.59322222     0.16600
H2399       H  0.25678334  0.35574310  0.57315012     0.19100
H2400       H  0.24343195  0.32367300  0.76945628     0.12400
C2401       C  0.18462186  0.39638870  0.03483777     0.16300
C2402       C  0.19302344  0.39248708  0.02595188    -0.32700
C2403       C  0.20511194  0.39988925  0.04105672     0.20700
C2404       C  0.20873696  0.41076971  0.06379234     0.02900
C2405       C  0.20031733  0.41471130  0.07258553    -0.22500
C2406       C  0.18817373  0.40726219  0.05755841     0.12100
S2407       S  0.16945990  0.38837870  0.02071314    -0.06100
C2408       C  0.16777894  0.39978337  0.04541840    -0.09600
C2409       C  0.17852971  0.40931353  0.06353346    -0.26200
S2410       S  0.22377829  0.41820610  0.08038481    -0.03400
C2411       C  0.22512944  0.40644415  0.05688706    -0.16800
C2412       C  0.21444841  0.39736513  0.03699401    -0.14800
H2413       H  0.19020400  0.38393353  0.00855135     0.20500
H2414       H  0.20307379  0.42313024  0.09078480     0.16600
H2415       H  0.17917491  0.41711712  0.08112285     0.19100
H2416       H  0.21347594  0.38917442  0.02129199     0.12400
C2417       C  0.21802561  0.32883930  0.91830258     0.16300
C2418       C  0.22045442  0.33583760  0.95659580    -0.32700
C2419       C  0.22767912  0.34865058  0.95294463     0.20700
C2420       C  0.23229623  0.35433214  0.91299469     0.02900
C2421       C  0.22955678  0.34733496  0.87435614    -0.22500
C2422       C  0.22233076  0.33447136  0.87803783     0.12100
S2423       S  0.21053165  0.31313995  0.91678083    -0.06100
C2424       C  0.21300576  0.31413724  0.86115622    -0.09600
C2425       C  0.21929379  0.32603541  0.84488114    -0.26200
S2426       S  0.24191529  0.36993920  0.91660616    -0.03400
C2427       C  0.23954684  0.36869701  0.97242657    -0.16800
C2428       C  0.23164937  0.35685314  0.98695798    -0.14800
H2429       H  0.21722198  0.33146329  0.98813563     0.20500
H2430       H  0.23323333  0.35168023  0.84308938     0.16600
H2431       H  0.22207387  0.32837347  0.81105678     0.19100
H2432       H  0.22942466  0.35428487  0.02100895     0.12400
C2433       C  0.26371450  0.42190312  0.85781913     0.16300
C2434       C  0.25915334  0.42303738  0.81698087    -0.32700
C2435       C  0.26277973  0.41918392  0.77934432     0.20700
C2436       C  0.27071409  0.41459742  0.78249106     0.02900
C2437       C  0.27549839  0.41379917  0.82287078    -0.22500
C2438       C  0.27174642  0.41744248  0.86025629     0.12100
S2439       S  0.25941112  0.42460529  0.90805374    -0.06100
C2440       C  0.26850055  0.41958449  0.93213849    -0.09600
C2441       C  0.27460443  0.41623138  0.90245529    -0.26200
S2442       S  0.27295369  0.40900402  0.73478598    -0.03400
C2443       C  0.26313005  0.41283973  0.70978420    -0.16800
C2444       C  0.25850680  0.41837820  0.73711243    -0.14800
H2445       H  0.25265163  0.42624057  0.81484922     0.20500
H2446       H  0.28144900  0.40993187  0.82528100     0.16600
H2447       H  0.28032648  0.41241243  0.91128905     0.19100
H2448       H  0.25174898  0.42081904  0.72737329     0.12400
C2449       C  0.25219642  0.40540139  0.28242021     0.16300
C2450       C  0.24797480  0.40081587  0.32427472    -0.32700
C2451       C  0.25536254  0.40744085  0.35988013     0.20700
C2452       C  0.26650060  0.41825094  0.35450794     0.02900
C2453       C  0.27079840  0.42285608  0.31221087    -0.22500
C2454       C  0.26336703  0.41613596  0.27622067     0.12100
S2455       S  0.24448831  0.39838559  0.23566209    -0.06100
C2456       C  0.25637482  0.40995940  0.20660163    -0.09600
C2457       C  0.26587447  0.41880734  0.23235324    -0.26200
S2458       S  0.27418825  0.42450957  0.40288069    -0.03400
C2459       C  0.26228476  0.41227104  0.42980774    -0.16800
C2460       C  0.25293365  0.40399585  0.40266315    -0.14800
H2461       H  0.23933709  0.39232280  0.32888340     0.20500
H2462       H  0.27957235  0.43117928  0.30755566     0.16600
H2463       H  0.27416206  0.42661258  0.21974541     0.19100
H2464       H  0.24495132  0.39557210  0.41365013     0.12400
C2465       C  0.25270775  0.34722628  0.14004772     0.16300
C2466       C  0.24752049  0.33436811  0.14058329    -0.32700
C2467       C  0.24397466  0.32841999  0.18129796     0.20700
C2468       C  0.24611360  0.33507646  0.21990113     0.02900
C2469       C  0.25121359  0.34789714  0.21933289    -0.22500
C2470       C  0.25417558  0.35376028  0.17849233     0.12100
S2471       S  0.25633431  0.35595378  0.09371589    -0.06100
C2472       C  0.25924067  0.36839323  0.12623005    -0.09600
C2473       C  0.25778475  0.36587996  0.17075204    -0.26200
S2474       S  0.24060849  0.32623519  0.26565614    -0.03400
C2475       C  0.23466944  0.31336642  0.23244452    -0.16800
C2476       C  0.23727592  0.31590742  0.18822958    -0.14800
H2477       H  0.24573861  0.32917009  0.11037040     0.20500
H2478       H  0.25222953  0.35299351  0.24927538     0.16600
H2479       H  0.25866623  0.37239551  0.19586617     0.19100
H2480       H  0.23375622  0.30902759  0.16236708     0.12400
C2481       C  0.43137906  0.45151890  0.76567790     0.16300
C2482       C  0.43343787  0.44691141  0.80456500    -0.32700
C2483       C  0.44126141  0.44202423  0.80262523     0.20700
C2484       C  0.44674956  0.44168506  0.76368169     0.02900
C2485       C  0.44491094  0.44654347  0.72508053    -0.22500
C2486       C  0.43710871  0.45144041  0.72702529     0.12100
S2487       S  0.42138390  0.45683962  0.76018354    -0.06100
C2488       C  0.42497600  0.45896938  0.70522262    -0.09600
C2489       C  0.43360956  0.45587691  0.69237775    -0.26200
S2490       S  0.45511705  0.43447931  0.76725598    -0.03400
C2491       C  0.45143435  0.43218839  0.82199628    -0.16800
C2492       C  0.44405968  0.43670734  0.83644940    -0.14800
H2493       H  0.42889333  0.44684459  0.83473890     0.20500
H2494       H  0.44910639  0.44620641  0.69455533     0.16600
H2495       H  0.43665489  0.45621281  0.65896692     0.19100
H2496       H  0.44055191  0.43570945  0.86948656     0.12400
C2497       C  0.34123569  0.43733350  0.57069233     0.16300
C2498       C  0.32961033  0.42750592  0.55871623    -0.32700
C2499       C  0.31932576  0.42875102  0.56685087     0.20700
C2500       C  0.32053946  0.43929419  0.58626675     0.02900
C2501       C  0.33219643  0.44922059  0.59752203    -0.22500
C2502       C  0.34250076  0.44799942  0.58920898     0.12100
S2503       S  0.35474959  0.43732834  0.56589685    -0.06100
C2504       C  0.36228234  0.45193203  0.58862964    -0.09600
C2505       C  0.35456479  0.45646183  0.59907711    -0.26200
S2506       S  0.30685761  0.43874943  0.59503961    -0.03400
C2507       C  0.29941478  0.42424416  0.57154130    -0.16800
C2508       C  0.30726289  0.42014850  0.55800717    -0.14800
H2509       H  0.32860617  0.41916465  0.54423553     0.20500
H2510       H  0.33317915  0.45747779  0.61266906     0.16600
H2511       H  0.35756362  0.46530216  0.61457487     0.19100
H2512       H  0.30427992  0.41126131  0.54290746     0.12400
C2513       C  0.40861884  0.42232380  0.52658129     0.16300
C2514       C  0.41267987  0.41383764  0.52323830    -0.32700
C2515       C  0.41643350  0.41210819  0.48193199     0.20700
C2516       C  0.41548381  0.41800998  0.44507604     0.02900
C2517       C  0.41112101  0.42626482  0.44820352    -0.22500
C2518       C  0.40809039  0.42856400  0.48998783     0.12100
S2519       S  0.40577501  0.42726247  0.57490327    -0.06100
C2520       C  0.40440004  0.43822479  0.54581966    -0.09600
C2521       C  0.40570794  0.43774953  0.50086222    -0.26200
S2522       S  0.42243659  0.41641813  0.39979482    -0.03400
C2523       C  0.42729346  0.40832148  0.43130121    -0.16800
C2524       C  0.42310781  0.40643453  0.47406092    -0.14800
H2525       H  0.41385538  0.40957506  0.55220665     0.20500
H2526       H  0.41113381  0.43147829  0.41998615     0.16600
H2527       H  0.40565388  0.44424141  0.47774205     0.19100
H2528       H  0.42627068  0.40270337  0.49954426     0.12400
C2529       C  0.45063140  0.45454319  0.29675678     0.16300
C2530       C  0.44394059  0.46032278  0.28629436    -0.32700
C2531       C  0.44281726  0.46243247  0.24187880     0.20700
C2532       C  0.44853706  0.45942922  0.20933507     0.02900
C2533       C  0.45535053  0.45377358  0.21986100    -0.22500
C2534       C  0.45603657  0.45117977  0.26413853     0.12100
S2535       S  0.45158630  0.44963897  0.34797117    -0.06100
C2536       C  0.45908272  0.44275648  0.32504113    -0.09600
C2537       C  0.46083123  0.44431740  0.28022392    -0.26200
S2538       S  0.44506423  0.46163571  0.15717204    -0.03400
C2539       C  0.43548890  0.46620753  0.17953576    -0.16800
C2540       C  0.43528290  0.46629234  0.22489120    -0.14800
H2541       H  0.43920138  0.46240846  0.31143565     0.20500
H2542       H  0.45932365  0.45085832  0.19442105     0.16600
H2543       H  0.46472217  0.44002059  0.26018313     0.19100
H2544       H  0.42924968  0.46821692  0.24425527     0.12400
C2545       C  0.32300153  0.44252183  0.08717547     0.16300
C2546       C  0.33520543  0.45225843  0.08291563    -0.32700
C2547       C  0.34463284  0.45044539  0.09920569     0.20700
C2548       C  0.34196638  0.43953332  0.11957886     0.02900
C2549       C  0.32982402  0.42984800  0.12372389    -0.22500
C2550       C  0.32045591  0.43154559  0.10671289     0.12100
S2551       S  0.31021511  0.44254377  0.06813430    -0.06100
C2552       C  0.30143821  0.42749251  0.08569766    -0.09600
C2553       C  0.30816234  0.42291370  0.10580941    -0.26200
S2554       S  0.35454141  0.43903188  0.13738200    -0.03400
C2555       C  0.36364598  0.45360833  0.11652621    -0.16800
C2556       C  0.35710665  0.45856490  0.09711133    -0.14800
H2557       H  0.33726844  0.46077598  0.06699679     0.20500
H2558       H  0.32777521  0.42125253  0.13897204     0.16600
H2559       H  0.30427814  0.41363851  0.11834375     0.19100
H2560       H  0.36124914  0.46760620  0.08234411     0.12400
C2561       C  0.39787021  0.48445044  0.82158017     0.16300
C2562       C  0.40212710  0.49004377  0.86291006    -0.32700
C2563       C  0.39870149  0.48232096  0.89983180     0.20700
C2564       C  0.39126592  0.46964275  0.89561307     0.02900
C2565       C  0.38675544  0.46413076  0.85468938    -0.22500
C2566       C  0.39030260  0.47179133  0.81795113     0.12100
S2567       S  0.40209362  0.49186434  0.77208483    -0.06100
C2568       C  0.39364320  0.47770749  0.74656344    -0.09600
C2569       C  0.38774086  0.46791783  0.77530028    -0.26200
S2570       S  0.38921793  0.46165789  0.94284973    -0.03400
C2571       C  0.39839221  0.47548946  0.96906095    -0.16800
C2572       C  0.40268505  0.48577476  0.94238172    -0.14800
H2573       H  0.40825882  0.49989680  0.86594123     0.20500
H2574       H  0.38117112  0.45421010  0.85137724     0.16600
H2575       H  0.38243269  0.45832380  0.76548358     0.19100
H2576       H  0.40899378  0.49514001  0.95291330     0.12400
C2577       C  0.41304278  0.48774479  0.39664420     0.16300
C2578       C  0.41760863  0.48867468  0.35426317    -0.32700
C2579       C  0.40958214  0.48639608  0.31912830     0.20700
C2580       C  0.39758938  0.48366852  0.32557408     0.02900
C2581       C  0.39303637  0.48289781  0.36826113    -0.22500
C2582       C  0.40101357  0.48483995  0.40368059     0.12100
S2583       S  0.42109328  0.48893754  0.44300685    -0.06100
C2584       C  0.40811007  0.48525745  0.47279977    -0.09600
C2585       C  0.39812225  0.48345876  0.44763056    -0.26200
S2586       S  0.38911514  0.48020865  0.27813057    -0.03400
C2587       C  0.40182934  0.48221422  0.24994359    -0.16800
C2588       C  0.41203049  0.48554416  0.27603879    -0.14800
H2589       H  0.42688226  0.49054326  0.34893518     0.20500
H2590       H  0.38356648  0.48036781  0.37363557     0.16600
H2591       H  0.38912652  0.48075979  0.46055672     0.19100
H2592       H  0.42058974  0.48654684  0.26431688     0.12400
C2593       C  0.40554453  0.41959450  0.02661247     0.16300
C2594       C  0.40861944  0.41406476  0.99282128    -0.32700
C2595       C  0.41846491  0.41206295  0.00018679     0.20700
C2596       C  0.42466689  0.41498268  0.04000337     0.02900
C2597       C  0.42113169  0.41984292  0.07458111    -0.22500
C2598       C  0.41159976  0.42226775  0.06665247     0.12100
S2599       S  0.39639326  0.42591429  0.02008117    -0.06100
C2600       C  0.40087150  0.43230773  0.07159814    -0.09600
C2601       C  0.40869350  0.42925427  0.09285321    -0.26200
S2602       S  0.43773566  0.41410264  0.03986585    -0.03400
C2603       C  0.43491297  0.40991265  0.98539734    -0.16800
C2604       C  0.42416340  0.40886786  0.96899580    -0.14800
H2605       H  0.40432676  0.41249246  0.96082555     0.20500
H2606       H  0.42633342  0.42268620  0.10493718     0.16600
H2607       H  0.41346107  0.43349103  0.12324740     0.19100
H2608       H  0.42132595  0.40707137  0.93493910     0.12400
C2609       C  0.77978626  0.19047241  0.93994929     0.16300
C2610       C  0.78779917  0.20301630  0.93065196    -0.32700
C2611       C  0.80040344  0.20793799  0.93948855     0.20700
C2612       C  0.80472072  0.20069368  0.95734639     0.02900
C2613       C  0.79671866  0.18832777  0.96755990    -0.22500
C2614       C  0.78424775  0.18338579  0.95798299     0.12100
S2615       S  0.76439369  0.18227258  0.92764976    -0.06100
C2616       C  0.76417869  0.16918597  0.94594211    -0.09600
C2617       C  0.77536880  0.17126984  0.96181740    -0.26200
S2618       S  0.82028056  0.20781102  0.96217180    -0.03400
C2619       C  0.82113545  0.22079595  0.94031678    -0.16800
C2620       C  0.80985685  0.21964212  0.93006371    -0.14800
H2621       H  0.78443597  0.20855276  0.91566890     0.20500
H2622       H  0.80015497  0.18263778  0.98067666     0.16600
H2623       H  0.77706637  0.16415043  0.97372389     0.19100
H2624       H  0.80869532  0.22674085  0.91468676     0.12400
C2625       C  0.78292983  0.19252111  0.44063078     0.16300
C2626       C  0.79127120  0.20533075  0.44100902    -0.32700
C2627       C  0.80382378  0.20940833  0.43455318     0.20700
C2628       C  0.80777556  0.20106310  0.42744926     0.02900
C2629       C  0.79952252  0.18835317  0.42779670    -0.22500
C2630       C  0.78708905  0.18431194  0.43474190     0.12100
S2631       S  0.76725591  0.18549969  0.44629085    -0.06100
C2632       C  0.76643680  0.17140986  0.44139613    -0.09600
C2633       C  0.77776419  0.17229340  0.43560900    -0.26200
S2634       S  0.82310994  0.20760637  0.41785458    -0.03400
C2635       C  0.82445956  0.22184300  0.42440321    -0.16800
C2636       C  0.81345163  0.22143894  0.43343897    -0.14800
H2637       H  0.78811405  0.21181684  0.44577161     0.20500
H2638       H  0.80265770  0.18186488  0.42245632     0.16600
H2639       H  0.77910121  0.16449472  0.43122655     0.19100
H2640       H  0.81250790  0.22947140  0.43776905     0.12400
C2641       C  0.73276455  0.14862893  0.66015805     0.16300
C2642       C  0.73882252  0.15221498  0.70072319    -0.32700
C2643       C  0.73205763  0.14618005  0.73818880     0.20700
C2644       C  0.71970589  0.13726253  0.73572634     0.02900
C2645       C  0.71364687  0.13369929  0.69519884    -0.22500
C2646       C  0.72051072  0.13945289  0.65760553     0.12100
S2647       S  0.73964347  0.15390059  0.61045392    -0.06100
C2648       C  0.72598089  0.14331236  0.58610052    -0.09600
C2649       C  0.71658762  0.13635971  0.61519573    -0.26200
S2650       S  0.71323746  0.13076991  0.78485835    -0.03400
C2651       C  0.72742050  0.13991945  0.80860823    -0.16800
C2652       C  0.73655561  0.14766918  0.77996322    -0.14800
H2653       H  0.74850110  0.15906159  0.70283449     0.20500
H2654       H  0.70412252  0.12643277  0.69291211     0.16600
H2655       H  0.70755481  0.12894334  0.60577380     0.19100
H2656       H  0.74605295  0.15385040  0.78912816     0.12400
C2657       C  0.72097881  0.13770127  0.23523102     0.16300
C2658       C  0.71491122  0.13301052  0.19508784    -0.32700
C2659       C  0.72187298  0.13731791  0.15662021     0.20700
C2660       C  0.73423428  0.14624458  0.15788297     0.02900
C2661       C  0.74032410  0.15087318  0.19804002    -0.22500
C2662       C  0.73345569  0.14623553  0.23656964     0.12100
S2663       S  0.71435426  0.13303220  0.28565313    -0.06100
C2664       C  0.72863445  0.14229265  0.30872319    -0.09600
C2665       C  0.73792027  0.14881202  0.27868318    -0.26200
S2666       S  0.74108948  0.15009266  0.10759143    -0.03400
C2667       C  0.72727987  0.13921561  0.08486446    -0.16800
C2668       C  0.71786976  0.13314629  0.11479928    -0.14800
H2669       H  0.70526914  0.12601341  0.19395371     0.20500
H2670       H  0.75007574  0.15750925  0.19924014     0.16600
H2671       H  0.74749993  0.15481898  0.28721589     0.19100
H2672       H  0.70868006  0.12584298  0.10647135     0.12400
C2673       C  0.64874937  0.09617544  0.92376251     0.16300
C2674       C  0.66012224  0.10600074  0.93810887    -0.32700
C2675       C  0.67049181  0.10462718  0.93465356     0.20700
C2676       C  0.66955764  0.09394426  0.91765487     0.02900
C2677       C  0.65825160  0.08422712  0.90271085    -0.22500
C2678       C  0.64790892  0.08559436  0.90621080     0.12100
S2679       S  0.63495194  0.09571202  0.92693106    -0.06100
C2680       C  0.62798960  0.08112533  0.90413410    -0.09600
C2681       C  0.63608560  0.07700193  0.89463300    -0.26200
S2682       S  0.68304773  0.09383667  0.91761203    -0.03400
C2683       C  0.69014085  0.10840672  0.94040673    -0.16800
C2684       C  0.68232114  0.11301802  0.94745301    -0.14800
H2685       H  0.66082818  0.11428261  0.95191400     0.20500
H2686       H  0.65751510  0.07587370  0.88946259     0.16600
H2687       H  0.63341561  0.06803382  0.88087399     0.19100
H2688       H  0.68511473  0.12197079  0.96159663     0.12400
C2689       C  0.66765904  0.10873121  0.44334564     0.16300
C2690       C  0.65567061  0.10693482  0.44382174    -0.32700
C2691       C  0.64592822  0.09547848  0.42909237     0.20700
C2692       C  0.64810987  0.08629939  0.41459178     0.02900
C2693       C  0.66000568  0.08804145  0.41463651    -0.22500
C2694       C  0.66968996  0.09942072  0.42929380     0.12100
S2695       S  0.68084586  0.12198209  0.45859277    -0.06100
C2696       C  0.68913446  0.11483704  0.44601733    -0.09600
C2697       C  0.68189463  0.10281261  0.43107474    -0.26200
S2698       S  0.63533348  0.07326146  0.39645750    -0.03400
C2699       C  0.62673485  0.08004065  0.40870490    -0.16800
C2700       C  0.63362254  0.09190841  0.42605038    -0.14800
H2701       H  0.65402940  0.11417959  0.45477208     0.20500
H2702       H  0.66166443  0.08084268  0.40324011     0.16600
H2703       H  0.68540111  0.09686137  0.42156635     0.19100
H2704       H  0.62988429  0.09769427  0.43503581     0.12400
C2705       C  0.58927253  0.07024888  0.60999486     0.16300
C2706       C  0.59019535  0.07495431  0.65278916    -0.32700
C2707       C  0.59113700  0.06822239  0.68800133     0.20700
C2708       C  0.59143974  0.05749826  0.68038565     0.02900
C2709       C  0.59064833  0.05290835  0.63794777    -0.22500
C2710       C  0.58937442  0.05939709  0.60318341     0.12100
S2711       S  0.58734856  0.07647566  0.56272901    -0.06100
C2712       C  0.58630181  0.06409142  0.53414492    -0.09600
C2713       C  0.58764702  0.05582228  0.56007003    -0.26200
S2714       S  0.59208447  0.05026707  0.72635933    -0.03400
C2715       C  0.59170176  0.06158115  0.75718861    -0.16800
C2716       C  0.59137416  0.07069948  0.73237611    -0.14800
H2717       H  0.58985660  0.08328462  0.65844102     0.20500
H2718       H  0.59064153  0.04438789  0.63237314     0.16600
H2719       H  0.58719375  0.04748028  0.54803797     0.19100
H2720       H  0.59095737  0.07844753  0.74594282     0.12400
C2721       C  0.58827312  0.07919290  0.11046591     0.16300
C2722       C  0.58461549  0.08020601  0.15308656    -0.32700
C2723       C  0.59179224  0.08015061  0.18840284     0.20700
C2724       C  0.60242638  0.07971112  0.18125933     0.02900
C2725       C  0.60626589  0.07911407  0.13884944    -0.22500
C2726       C  0.59880011  0.07852856  0.10387985     0.12100
S2727       S  0.57968545  0.07668337  0.06388993    -0.06100
C2728       C  0.59021338  0.07434003  0.03602601    -0.09600
C2729       C  0.59993955  0.07574872  0.06137371    -0.26200
S2730       S  0.60888885  0.07777879  0.22729717    -0.03400
C2731       C  0.59706818  0.07727180  0.25682429    -0.16800
C2732       C  0.58872647  0.07889241  0.23215260    -0.14800
H2733       H  0.57606495  0.08006269  0.15859767     0.20500
H2734       H  0.61420382  0.07810778  0.13353295     0.16600
H2735       H  0.60695197  0.07384824  0.05002123     0.19100
H2736       H  0.58027192  0.07793087  0.24481630     0.12400
C2737       C  0.53918469  0.98617849  0.75226212     0.16300
C2738       C  0.54105121  0.99749751  0.76794921    -0.32700
C2739       C  0.54741687  0.00192070  0.80775927     0.20700
C2740       C  0.55144755  0.99519423  0.83134051     0.02900
C2741       C  0.54924695  0.98373111  0.81635854    -0.22500
C2742       C  0.54320016  0.97949137  0.77608107     0.12100
S2743       S  0.53299245  0.97991269  0.70233281    -0.06100
C2744       C  0.53598490  0.96825960  0.71363181    -0.09600
C2745       C  0.54130324  0.96915755  0.75426075    -0.26200
S2746       S  0.56050890  0.00277674  0.87521837    -0.03400
C2747       C  0.55897646  0.01519323  0.86157265    -0.16800
C2748       C  0.55157951  0.01341553  0.82548719    -0.14800
H2749       H  0.53826457  0.00292145  0.74882551     0.20500
H2750       H  0.55273124  0.97867236  0.83408079     0.16600
H2751       H  0.54406150  0.96283371  0.76650739     0.19100
H2752       H  0.55032679  0.02052009  0.81063735     0.12400
C2753       C  0.57113809  0.98723015  0.52107883     0.16300
C2754       C  0.57982205  0.99973767  0.51462698    -0.32700
C2755       C  0.57938461  0.00509330  0.47479637     0.20700
C2756       C  0.57103420  0.99811374  0.44215727     0.02900
C2757       C  0.56263520  0.98556818  0.44806478    -0.22500
C2758       C  0.56267900  0.98039738  0.48856917     0.12100
S2759       S  0.56863197  0.97963384  0.56979290    -0.06100
C2760       C  0.55572738  0.96739415  0.54662333    -0.09600
C2761       C  0.55389812  0.96900314  0.50289746    -0.26200
S2762       S  0.57051654  0.00645718  0.39931883    -0.03400
C2763       C  0.58144967  0.01958596  0.42580721    -0.16800
C2764       C  0.58551751  0.01748535  0.46531690    -0.14800
H2765       H  0.58600521  0.00526909  0.54077970     0.20500
H2766       H  0.55569366  0.98031165  0.42348192     0.16600
H2767       H  0.54599304  0.96256123  0.48360865     0.19100
H2768       H  0.59154831  0.02467030  0.48801869     0.12400
C2769       C  0.54817509  0.99617967  0.19381676     0.16300
C2770       C  0.55664555  0.00840334  0.20445699    -0.32700
C2771       C  0.55383860  0.01376298  0.23934449     0.20700
C2772       C  0.54291584  0.00740261  0.26223321     0.02900
C2773       C  0.53414462  0.99520836  0.25041478    -0.22500
C2774       C  0.53710906  0.98969139  0.21593026     0.12100
S2775       S  0.55099107  0.98772151  0.15714749    -0.06100
C2776       C  0.53710236  0.97522592  0.17113291    -0.09600
C2777       C  0.53053988  0.97756156  0.20238024    -0.26200
S2778       S  0.54230420  0.01511545  0.30785896    -0.03400
C2779       C  0.55703186  0.02676967  0.29618186    -0.16800
C2780       C  0.56179395  0.02487018  0.25806577    -0.14800
H2781       H  0.56543417  0.01328482  0.18804260     0.20500
H2782       H  0.52575922  0.99002151  0.26894762     0.16600
H2783       H  0.52189883  0.97064059  0.21630472     0.19100
H2784       H  0.57112832  0.03079876  0.24692567     0.12400
C2785       C  0.50907849  0.91714439  0.90408008     0.16300
C2786       C  0.50449800  0.91567581  0.86100356    -0.32700
C2787       C  0.51224613  0.91649465  0.82643291     0.20700
C2788       C  0.52389867  0.91838943  0.83462062     0.02900
C2789       C  0.52839196  0.91968299  0.87751707    -0.22500
C2790       C  0.52080975  0.91920907  0.91184216     0.12100
S2791       S  0.50175418  0.91784724  0.95034190    -0.06100
C2792       C  0.51474520  0.92119324  0.97996961    -0.09600
C2793       C  0.52411077  0.92158967  0.95517089    -0.26200
S2794       S  0.53232689  0.92018513  0.78877171    -0.03400
C2795       C  0.52015257  0.91857898  0.75776609    -0.16800
C2796       C  0.50998995  0.91648508  0.78219095    -0.14800
H2797       H  0.49551281  0.91448918  0.85462918     0.20500
H2798       H  0.53764121  0.92156247  0.88375477     0.16600
H2799       H  0.53311787  0.92413671  0.96790871     0.19100
H2800       H  0.50172190  0.91576978  0.76851497     0.12400
C2801       C  0.51650729  0.91817154  0.33630274     0.16300
C2802       C  0.51545795  0.91325840  0.37859922    -0.32700
C2803       C  0.51400314  0.91959674  0.41414304     0.20700
C2804       C  0.51336403  0.93016350  0.40742364     0.02900
C2805       C  0.51452530  0.93510065  0.36552789    -0.22500
C2806       C  0.51624750  0.92896546  0.33040999     0.12100
S2807       S  0.51871517  0.91224801  0.28864938    -0.06100
C2808       C  0.51967021  0.92468863  0.26126804    -0.09600
C2809       C  0.51817596  0.93278914  0.28775510    -0.26200
S2810       S  0.51174305  0.93669530  0.45387324    -0.03400
C2811       C  0.51223355  0.92531734  0.48357099    -0.16800
C2812       C  0.51342838  0.91677721  0.45811661    -0.14800
H2813       H  0.51596890  0.90500857  0.38364339     0.20500
H2814       H  0.51433419  0.94353254  0.36061713     0.16600
H2815       H  0.51867018  0.94118401  0.27637950     0.19100
H2816       H  0.51416916  0.90916933  0.47106107     0.12400
C2817       C  0.57535742  0.98438293  0.00923761     0.16300
C2818       C  0.58038609  0.99311676  0.97562422    -0.32700
C2819       C  0.58622093  0.00563027  0.98745967     0.20700
C2820       C  0.58728349  0.00930847  0.03091665     0.02900
C2821       C  0.58277649  0.00058659  0.06466207    -0.22500
C2822       C  0.57666155  0.98807512  0.05275291     0.12100
S2823       S  0.56544533  0.96897477  0.00104024    -0.06100
C2824       C  0.56306571  0.96749352  0.05675219    -0.09600
C2825       C  0.56982124  0.97837930  0.08013323    -0.26200
S2826       S  0.59218997  0.02461338  0.03786711    -0.03400
C2827       C  0.59289045  0.02611927  0.98170084    -0.16800
C2828       C  0.58966456  0.01528212  0.95922607    -0.14800
H2829       H  0.57887653  0.99028139  0.94151440     0.20500
H2830       H  0.58306054  0.00339867  0.09846570     0.16600
H2831       H  0.56859801  0.97939669  0.11473912     0.19100
H2832       H  0.58832020  0.01419117  0.92402666     0.12400
C2833       C  0.57367399  0.90177237  0.57863302     0.16300
C2834       C  0.57145310  0.91160566  0.57662248    -0.32700
C2835       C  0.55968065  0.90923216  0.58754485     0.20700
C2836       C  0.55047992  0.89755816  0.59966798     0.02900
C2837       C  0.55271927  0.88771219  0.60186605    -0.22500
C2838       C  0.56455158  0.89011277  0.59128569     0.12100
S2839       S  0.58726689  0.90277955  0.56558408    -0.06100
C2840       C  0.58070211  0.88734148  0.57766102    -0.09600
C2841       C  0.56856742  0.88177935  0.59117191    -0.26200
S2842       S  0.53687793  0.89666311  0.61234612    -0.03400
C2843       C  0.54372453  0.91222011  0.60180045    -0.16800
C2844       C  0.55586510  0.91768169  0.58866193    -0.14800
H2845       H  0.57860759  0.92072518  0.56701607     0.20500
H2846       H  0.54557327  0.87860295  0.61158191     0.16600
H2847       H  0.56290246  0.87211344  0.59916483     0.19100
H2848       H  0.56168360  0.92737973  0.58138833     0.12400
C2849       C  0.57381899  0.90093752  0.09638132     0.16300
C2850       C  0.57216950  0.91090908  0.10652578    -0.32700
C2851       C  0.56011258  0.90873527  0.10802694     0.20700
C2852       C  0.55012891  0.89718502  0.09883680     0.02900
C2853       C  0.55177163  0.88713906  0.08935014    -0.22500
C2854       C  0.56385084  0.88925345  0.08880311     0.12100
S2855       S  0.58773749  0.90182924  0.09230235    -0.06100
C2856       C  0.58016223  0.88621347  0.08154570    -0.09600
C2857       C  0.56742596  0.88068865  0.08086140    -0.26200
S2858       S  0.53628483  0.89663975  0.10037256    -0.03400
C2859       C  0.54399385  0.91203544  0.11487090    -0.16800
C2860       C  0.55665026  0.91724167  0.11778930    -0.14800
H2861       H  0.57996964  0.91998859  0.11298692     0.20500
H2862       H  0.54397453  0.87807569  0.08270512     0.16600
H2863       H  0.56115858  0.87101516  0.07416819     0.19100
H2864       H  0.56300287  0.92680990  0.12586284     0.12400
C2865       C  0.58916851  0.85914749  0.85831771     0.16300
C2866       C  0.58475823  0.85374620  0.81671254    -0.32700
C2867       C  0.59121032  0.86059204  0.77953548     0.20700
C2868       C  0.60136674  0.87232795  0.78398504     0.02900
C2869       C  0.60557416  0.87774000  0.82508585    -0.22500
C2870       C  0.59938313  0.87084900  0.86184561     0.12100
S2871       S  0.58339101  0.85233073  0.90811941    -0.06100
C2872       C  0.59507956  0.86536207  0.93318296    -0.09600
C2873       C  0.60277890  0.87441426  0.90423911    -0.26200
S2874       S  0.60866489  0.87891375  0.73647648    -0.03400
C2875       C  0.59815110  0.86569735  0.70949063    -0.16800
C2876       C  0.58917656  0.85675723  0.73628840    -0.14800
H2877       H  0.57694348  0.84450956  0.81353384     0.20500
H2878       H  0.61366411  0.88680334  0.82834921     0.16600
H2879       H  0.61063457  0.88318226  0.91374078     0.19100
H2880       H  0.58204190  0.84776206  0.72516242     0.12400
C2881       C  0.58338830  0.85005606  0.28705525     0.16300
C2882       C  0.58224604  0.84537542  0.32953364    -0.32700
C2883       C  0.58212771  0.85260117  0.36445726     0.20700
C2884       C  0.58261646  0.86373072  0.35711756     0.02900
C2885       C  0.58356603  0.86830017  0.31476423    -0.22500
C2886       C  0.58422546  0.86136103  0.28016341     0.12100
S2887       S  0.58551159  0.84362348  0.24100188    -0.06100
C2888       C  0.58794791  0.85649757  0.21295937    -0.09600
C2889       C  0.58692273  0.86514019  0.23767561    -0.26200
S2890       S  0.58401793  0.87195979  0.40317937    -0.03400
C2891       C  0.58432422  0.86052503  0.43278697    -0.16800
C2892       C  0.58302877  0.85065643  0.40821187    -0.14800
H2893       H  0.58225416  0.83688423  0.33527485     0.20500
H2894       H  0.58460477  0.87728640  0.30929158     0.16600
H2895       H  0.58881266  0.87403620  0.22574773     0.19100
H2896       H  0.58401124  0.84317954  0.42109411     0.12400
C2897       C  0.67246221  0.89144270  0.91974185     0.16300
C2898       C  0.66064072  0.88220321  0.93174400    -0.32700
C2899       C  0.65653010  0.88290882  0.97366221     0.20700
C2900       C  0.66402314  0.89221586  0.00281654     0.02900
C2901       C  0.67596219  0.90131736  0.99115951    -0.22500
C2902       C  0.67993265  0.90081752  0.94870063     0.12100
S2903       S  0.67850717  0.89289202  0.86879394    -0.06100
C2904       C  0.69117245  0.90641042  0.88617316    -0.09600
C2905       C  0.69075887  0.90943254  0.92968008    -0.26200
S2906       S  0.65687239  0.89235803  0.04989054    -0.03400
C2907       C  0.64362078  0.87991353  0.02984636    -0.16800
C2908       C  0.64479644  0.87574649  0.98916343    -0.14800
H2909       H  0.65467530  0.87513486  0.90858170     0.20500
H2910       H  0.68164834  0.90882127  0.01336606     0.16600
H2911       H  0.69777266  0.91768091  0.94598334     0.19100
H2912       H  0.63723682  0.86861282  0.97034361     0.12400
C2913       C  0.67200347  0.92409577  0.70638839     0.16300
C2914       C  0.65938062  0.91970971  0.70152682    -0.32700
C2915       C  0.65422490  0.91593726  0.65947699     0.20700
C2916       C  0.66145643  0.91706087  0.62362000     0.02900
C2917       C  0.67408213  0.92165699  0.62833876    -0.22500
C2918       C  0.67910043  0.92482835  0.67060603     0.12100
S2919       S  0.67958639  0.92723579  0.75547050    -0.06100
C2920       C  0.69224641  0.92899317  0.72761882    -0.09600
C2921       C  0.69070589  0.92760889  0.68258352    -0.26200
S2922       S  0.65340866  0.91033867  0.57690623    -0.03400
C2923       C  0.64008888  0.90551632  0.60599277    -0.16800
C2924       C  0.64190250  0.90936102  0.64942233    -0.14800
H2925       H  0.65368001  0.91844663  0.72977693     0.20500
H2926       H  0.67957122  0.92184393  0.60076751     0.16600
H2927       H  0.69744544  0.92781170  0.66012395     0.19100
H2928       H  0.63464879  0.90621671  0.67352656     0.12400
C2929       C  0.66523261  0.89096806  0.36735888     0.16300
C2930       C  0.65357444  0.88869989  0.37918706    -0.32700
C2931       C  0.64799641  0.88120649  0.41556049     0.20700
C2932       C  0.65348958  0.87570392  0.43821695     0.02900
C2933       C  0.66507305  0.87767392  0.42542370    -0.22500
C2934       C  0.67093761  0.88564763  0.38992875     0.12100
S2935       S  0.67416922  0.90151131  0.32926671    -0.06100
C2936       C  0.68589622  0.89899377  0.34382155    -0.09600
C2937       C  0.68287211  0.89014549  0.37606664    -0.26200
S2938       S  0.64571508  0.86810594  0.48461563    -0.03400
C2939       C  0.63531878  0.87287560  0.47400964    -0.16800
C2940       C  0.63758646  0.87953998  0.43563270    -0.14800
H2941       H  0.64940341  0.89329303  0.36260827     0.20500
H2942       H  0.66964566  0.87382571  0.44405723     0.16600
H2943       H  0.68928662  0.88787190  0.39083886     0.19100
H2944       H  0.63236580  0.88372813  0.42461992     0.12400
C2945       C  0.74347107  0.93499737  0.50974374     0.16300
C2946       C  0.74769401  0.93917229  0.55270191    -0.32700
C2947       C  0.74095942  0.93141198  0.58768377     0.20700
C2948       C  0.73068313  0.91994468  0.57987662     0.02900
C2949       C  0.72656729  0.91575452  0.53727344    -0.22500
C2950       C  0.73307786  0.92357742  0.50265230     0.12100
S2951       S  0.74953154  0.94331323  0.46264930    -0.06100
C2952       C  0.73769500  0.93136044  0.43386781    -0.09600
C2953       C  0.72974415  0.92147080  0.45945308    -0.26200
S2954       S  0.72333276  0.91206832  0.62572107    -0.03400
C2955       C  0.73408516  0.92432385  0.65654488    -0.16800
C2956       C  0.74299127  0.93400267  0.63195181    -0.14800
H2957       H  0.75560953  0.94820777  0.55862427     0.20500
H2958       H  0.71835286  0.90692584  0.53141425     0.16600
H2959       H  0.72159734  0.91334871  0.44718668     0.19100
H2960       H  0.75027298  0.94256788  0.64557243     0.12400
C2961       C  0.74553025  0.93106231  0.07823871     0.16300
C2962       C  0.74844149  0.92919009  0.03532533    -0.32700
C2963       C  0.74548840  0.93460456  0.00047463     0.20700
C2964       C  0.74039735  0.94194673  0.00861216     0.02900
C2965       C  0.73764383  0.94390046  0.05107802    -0.22500
C2966       C  0.74006562  0.93810501  0.08534589     0.12100
S2967       S  0.74695909  0.92427883  0.12495183    -0.06100
C2968       C  0.73967169  0.93067183  0.15322073    -0.09600
C2969       C  0.73665154  0.93785159  0.12793176    -0.26200
S2970       S  0.73667501  0.94711379  0.96322365    -0.03400
C2971       C  0.74153633  0.93898549  0.93190642    -0.16800
C2972       C  0.74619983  0.93285798  0.95603237    -0.14800
H2973       H  0.75225865  0.92330814  0.02924112     0.20500
H2974       H  0.73319386  0.94922352  0.05694707     0.16600
H2975       H  0.73169400  0.94223616  0.13983225     0.19100
H2976       H  0.74930872  0.92698492  0.94205502     0.12400
C2977       C  0.65927789  0.91913209  0.14762259     0.16300
C2978       C  0.67208254  0.92452301  0.14518989    -0.32700
C2979       C  0.67875268  0.92783639  0.18464171     0.20700
C2980       C  0.67300640  0.92657068  0.22455212     0.02900
C2981       C  0.66017526  0.92109804  0.22699493    -0.22500
C2982       C  0.65342160  0.91704634  0.18771786     0.12100
S2983       S  0.64956025  0.91263467  0.10419605    -0.06100
C2984       C  0.63747361  0.90620486  0.14032145    -0.09600
C2985       C  0.64088466  0.90948240  0.18379252    -0.26200
S2986       S  0.68251485  0.93010079  0.26886102    -0.03400
C2987       C  0.69416810  0.93252188  0.23363577    -0.16800
C2988       C  0.69086272  0.93110020  0.18968622    -0.14800
H2989       H  0.67654073  0.92524727  0.11412341     0.20500
H2990       H  0.65560405  0.91924331  0.25840859     0.16600
H2991       H  0.63472053  0.90551401  0.21133072     0.19100
H2992       H  0.69665465  0.93127096  0.16320702     0.12400
C2993       C  0.87432115  0.13661261  0.71357297     0.16300
C2994       C  0.86615427  0.12378902  0.71161767    -0.32700
C2995       C  0.85359303  0.11944711  0.71897645     0.20700
C2996       C  0.84945640  0.12754555  0.72820978     0.02900
C2997       C  0.85753138  0.14028161  0.72927080    -0.22500
C2998       C  0.86998102  0.14459193  0.72161766     0.12100
S2999       S  0.88998538  0.14390016  0.70764448    -0.06100
C3000       C  0.89053456  0.15778451  0.71527685    -0.09600
C3001       C  0.87915807  0.15666659  0.72213232    -0.26200
S3002       S  0.83414413  0.12067146  0.73866934    -0.03400
C3003       C  0.83307824  0.10663336  0.72993986    -0.16800
C3004       C  0.84413782  0.10734938  0.71926308    -0.14800
H3005       H  0.86945421  0.11748484  0.70519664     0.20500
H3006       H  0.85425814  0.14658098  0.73633461     0.16600
H3007       H  0.87769486  0.16432189  0.72828642     0.19100
H3008       H  0.84523627  0.09947318  0.71313230     0.12400
C3009       C  0.76615613  0.11988629  0.59292012     0.16300
C3010       C  0.77045454  0.11739628  0.63174067    -0.32700
C3011       C  0.77797832  0.11219361  0.62797825     0.20700
C3012       C  0.78129973  0.10982372  0.58736311     0.02900
C3013       C  0.77738906  0.11275640  0.54858777    -0.22500
C3014       C  0.76963890  0.11768460  0.55235843     0.12100
S3015       S  0.75556869  0.12453908  0.59043027    -0.06100
C3016       C  0.75583081  0.12346802  0.53415623    -0.09600
C3017       C  0.76387222  0.11989076  0.51851429    -0.26200
S3018       S  0.78876232  0.10167327  0.58954153    -0.03400
C3019       C  0.78745009  0.10151790  0.64567456    -0.16800
C3020       C  0.78166265  0.10759367  0.66164885    -0.14800
H3021       H  0.76747318  0.11876624  0.66345833     0.20500
H3022       H  0.77966298  0.11058197  0.51684338     0.16600
H3023       H  0.76494127  0.11833734  0.48426219     0.19100
H3024       H  0.77923267  0.10759062  0.69569439     0.12400
C3025       C  0.76342075  0.99169424  0.77675848     0.16300
C3026       C  0.77252926  0.00412676  0.78269524    -0.32700
C3027       C  0.77177055  0.01299246  0.75698952     0.20700
C3028       C  0.76239959  0.00960739  0.72658750     0.02900
C3029       C  0.75321998  0.99722051  0.72110460    -0.22500
C3030       C  0.75391468  0.98837934  0.74700493     0.12100
S3031       S  0.76267807  0.97949466  0.80439156    -0.06100
C3032       C  0.74927439  0.96986598  0.77623142    -0.09600
C3033       C  0.74571258  0.97590864  0.74692806    -0.26200
S3034       S  0.76321336  0.02165146  0.69790002    -0.03400
C3035       C  0.77628174  0.03145206  0.72732498    -0.16800
C3036       C  0.77972871  0.02553434  0.75777434    -0.14800
H3037       H  0.77988990  0.00677075  0.80626952     0.20500
H3038       H  0.74583595  0.99458452  0.69764156     0.16600
H3039       H  0.73751120  0.97140276  0.72673775     0.19100
H3040       H  0.78766569  0.03015289  0.77918317     0.12400
C3041       C  0.74276629  0.07590987  0.77882435     0.16300
C3042       C  0.73731438  0.08321333  0.78217751    -0.32700
C3043       C  0.73462867  0.08568189  0.82424879     0.20700
C3044       C  0.73650107  0.08041260  0.86116023     0.02900
C3045       C  0.74163535  0.07281165  0.85769602    -0.22500
C3046       C  0.74507527  0.07101034  0.81584244     0.12100
S3047       S  0.74941224  0.07452165  0.73228234    -0.06100
C3048       C  0.75588669  0.06780447  0.76309406    -0.09600
C3049       C  0.75256010  0.06627695  0.80691089    -0.26200
S3050       S  0.73403438  0.08566781  0.90948310    -0.03400
C3051       C  0.73111153  0.09556656  0.87979088    -0.16800
C3052       C  0.73152009  0.09438463  0.83473415    -0.14800
H3053       H  0.73628014  0.08771265  0.75362142     0.20500
H3054       H  0.74386197  0.06937691  0.88672254     0.16600
H3055       H  0.75669488  0.06339002  0.83185442     0.19100
H3056       H  0.73052970  0.10022982  0.81106156     0.12400
C3057       C  0.85765285  0.11865046  0.21265279     0.16300
C3058       C  0.87056919  0.12561323  0.21418279    -0.32700
C3059       C  0.87617079  0.13851269  0.21147012     0.20700
C3060       C  0.86917387  0.14410961  0.20647926     0.02900
C3061       C  0.85635508  0.13719713  0.20489012    -0.22500
C3062       C  0.85078648  0.12441071  0.20867354     0.12100
S3063       S  0.84894148  0.10295892  0.21771026    -0.06100
C3064       C  0.83602657  0.10434266  0.21565791    -0.09600
C3065       C  0.83842565  0.11628865  0.21072057    -0.26200
S3066       S  0.87739887  0.15973201  0.20489677    -0.03400
C3067       C  0.89053133  0.15893048  0.21195511    -0.16800
C3068       C  0.88853953  0.14702776  0.21464017    -0.14800
H3069       H  0.87598147  0.12120086  0.21834211     0.20500
H3070       H  0.85093057  0.14163923  0.20197908     0.16600
H3071       H  0.83146148  0.11891296  0.20963155     0.19100
H3072       H  0.89566860  0.14475482  0.21960223     0.12400
C3073       C  0.77285784  0.11444178  0.04274086     0.16300
C3074       C  0.78010292  0.10906068  0.05015239    -0.32700
C3075       C  0.78093251  0.10573632  0.09334232     0.20700
C3076       C  0.77514043  0.10806794  0.12759294     0.02900
C3077       C  0.76814206  0.11363515  0.12028318    -0.22500
C3078       C  0.76696468  0.11655060  0.07715246     0.12100
S3079       S  0.76925237  0.11759783  0.99236716    -0.06100
C3080       C  0.75933031  0.12124013  0.01815870    -0.09600
C3081       C  0.75928798  0.12055148  0.06330160    -0.26200
S3082       S  0.77634718  0.10261274  0.17701479    -0.03400
C3083       C  0.78468194  0.09707318  0.15153007    -0.16800
C3084       C  0.78647560  0.09932750  0.10702545    -0.14800
H3085       H  0.78437254  0.10699175  0.02323254     0.20500
H3086       H  0.76327627  0.11503395  0.14684217     0.16600
H3087       H  0.75335825  0.12212204  0.08467462     0.19100
H3088       H  0.79108270  0.09602340  0.08579012     0.12400
C3089       C  0.76619586  0.98983729  0.28056009     0.16300
C3090       C  0.77628959  0.00135902  0.26951152    -0.32700
C3091       C  0.77464031  0.01160845  0.27030387     0.20700
C3092       C  0.76346168  0.01040598  0.28195951     0.02900
C3093       C  0.75354610  0.99899971  0.29451190    -0.22500
C3094       C  0.75515126  0.98876297  0.29331329     0.12100
S3095       S  0.76586691  0.97609048  0.27746814    -0.06100
C3096       C  0.75073927  0.96887552  0.29399718    -0.09600
C3097       C  0.74632005  0.97679788  0.30173068    -0.26200
S3098       S  0.76278694  0.02353364  0.27640711    -0.03400
C3099       C  0.77774745  0.03081705  0.25845110    -0.16800
C3100       C  0.78300537  0.02342593  0.25758391    -0.14800
H3101       H  0.78489538  0.00221557  0.25917240     0.20500
H3102       H  0.74479210  0.99805842  0.30321851     0.16600
H3103       H  0.73699574  0.97389989  0.31144667     0.19100
H3104       H  0.79219248  0.02636511  0.24606821     0.12400
C3105       C  0.80549512  0.06564218  0.01429737     0.16300
C3106       C  0.81151606  0.06940845  0.97355735    -0.32700
C3107       C  0.80425408  0.06767077  0.93598156     0.20700
C3108       C  0.79160438  0.06233618  0.93912864     0.02900
C3109       C  0.78563368  0.05840908  0.97936808    -0.22500
C3110       C  0.79284571  0.06026713  0.01665810     0.12100
S3111       S  0.81249050  0.06785333  0.06465780    -0.06100
C3112       C  0.79818199  0.06160632  0.08867860    -0.09600
C3113       C  0.78864488  0.05790394  0.05878544    -0.26200
S3114       S  0.78437842  0.06186849  0.89141432    -0.03400
C3115       C  0.79847568  0.06892782  0.86623976    -0.16800
C3116       C  0.80827888  0.07134766  0.89367325    -0.14800
H3117       H  0.82141927  0.07384777  0.97144582     0.20500
H3118       H  0.77578034  0.05446311  0.98174591     0.16600
H3119       H  0.77910367  0.05421047  0.06759819     0.19100
H3120       H  0.81781232  0.07606296  0.88373360     0.12400
C3121       C  0.81224887  0.08173037  0.44393260     0.16300
C3122       C  0.81264841  0.08586950  0.48665551    -0.32700
C3123       C  0.81156551  0.07804238  0.52080502     0.20700
C3124       C  0.81060203  0.06670705  0.51325847     0.02900
C3125       C  0.81070939  0.06272999  0.47005052    -0.22500
C3126       C  0.81134328  0.07044785  0.43544272     0.12100
S3127       S  0.81124751  0.08913117  0.39914982    -0.06100
C3128       C  0.80952406  0.07697505  0.36784810    -0.09600
C3129       C  0.80998813  0.06773027  0.39117172    -0.26200
S3130       S  0.80753483  0.05794914  0.55976520    -0.03400
C3131       C  0.80720699  0.06961558  0.58858459    -0.16800
C3132       C  0.80978352  0.07978558  0.56363579    -0.14800
H3133       H  0.81288206  0.09446958  0.49296490     0.20500
H3134       H  0.80950733  0.05371010  0.46365626     0.16600
H3135       H  0.80854488  0.05918876  0.37700826     0.19100
H3136       H  0.80929761  0.08765248  0.57563371     0.12400
C3137       C  0.74673028  0.07981607  0.30194333     0.16300
C3138       C  0.73983816  0.08575938  0.30207591    -0.32700
C3139       C  0.73687308  0.08877334  0.34280086     0.20700
C3140       C  0.74008973  0.08544930  0.38174383     0.02900
C3141       C  0.74684624  0.07933770  0.38162090    -0.22500
C3142       C  0.75032846  0.07685004  0.34083913     0.12100
S3143       S  0.75296205  0.07736862  0.25615581    -0.06100
C3144       C  0.76079986  0.07261279  0.28950196    -0.09600
C3145       C  0.75844553  0.07271523  0.33388370    -0.26200
S3146       S  0.73660554  0.09091295  0.42759001    -0.03400
C3147       C  0.73123370  0.09820375  0.39399008    -0.16800
C3148       C  0.73184522  0.09613093  0.34959601    -0.14800
H3149       H  0.73759751  0.08864679  0.27173572     0.20500
H3150       H  0.74992494  0.07732876  0.41200840     0.16600
H3151       H  0.76319624  0.07088126  0.35973720     0.19100
H3152       H  0.72954108  0.10047972  0.32363393     0.12400
C3153       C  0.07060468  0.54446301  0.62552657     0.16300
C3154       C  0.07584344  0.53694238  0.62044717    -0.32700
C3155       C  0.06775749  0.52416043  0.61566119     0.20700
C3156       C  0.05512366  0.51924643  0.61585884     0.02900
C3157       C  0.04997656  0.52664713  0.62219250    -0.22500
C3158       C  0.05795895  0.53927431  0.62693484     0.12100
S3159       S  0.07847194  0.56026354  0.62795474    -0.06100
C3160       C  0.06448550  0.55963072  0.63111047    -0.09600
C3161       C  0.05443940  0.54783154  0.63076184    -0.26200
S3162       S  0.04668157  0.50389506  0.60613904    -0.03400
C3163       C  0.06020100  0.50380023  0.60268865    -0.16800
C3164       C  0.07078159  0.51518425  0.60874437    -0.14800
H3165       H  0.08570724  0.54088303  0.61911299     0.20500
H3166       H  0.04010425  0.52274561  0.62214208     0.16600
H3167       H  0.04494481  0.54560810  0.63127330     0.19100
H3168       H  0.08006229  0.51682782  0.60678560     0.12400
C3169       C  0.05170711  0.51680241  0.09299381     0.16300
C3170       C  0.04723548  0.52491505  0.08944405    -0.32700
C3171       C  0.05442736  0.53680031  0.10665305     0.20700
C3172       C  0.06569721  0.54060833  0.12641041     0.02900
C3173       C  0.07010542  0.53233340  0.13086001    -0.22500
C3174       C  0.06280265  0.52029803  0.11371863     0.12100
S3175       S  0.04446095  0.50227482  0.07177961    -0.06100
C3176       C  0.05636301  0.50060438  0.09112902    -0.09600
C3177       C  0.06545766  0.51088720  0.11339764    -0.26200
S3178       S  0.07315735  0.55581077  0.14291006    -0.03400
C3179       C  0.06075076  0.55677322  0.12377267    -0.16800
C3180       C  0.05152499  0.54590223  0.10550412    -0.14800
H3181       H  0.03854621  0.52211954  0.07331127     0.20500
H3182       H  0.07887875  0.53518764  0.14637439     0.16600
H3183       H  0.07368949  0.51156636  0.12725850     0.19100
H3184       H  0.04313781  0.54477021  0.09122682     0.12400
C3185       C  0.07561758  0.60364151  0.92567708     0.16300
C3186       C  0.07757102  0.60993887  0.88594700    -0.32700
C3187       C  0.07578488  0.60326161  0.84697101     0.20700
C3188       C  0.07286373  0.59104444  0.84751913     0.02900
C3189       C  0.07093196  0.58475385  0.88723416    -0.22500
C3190       C  0.07205770  0.59124674  0.92610261     0.12100
S3191       S  0.07603087  0.60974100  0.97624819    -0.06100
C3192       C  0.07072253  0.59529721  0.99782841    -0.09600
C3193       C  0.06912165  0.58637752  0.96742758    -0.26200
S3194       S  0.07061738  0.58442079  0.79681179    -0.03400
C3195       C  0.07295769  0.59802474  0.77476643    -0.16800
C3196       C  0.07573524  0.60728764  0.80524278    -0.14800
H3197       H  0.07977487  0.61945413  0.88540455     0.20500
H3198       H  0.06806765  0.57505329  0.88770581     0.16600
H3199       H  0.06556009  0.57674805  0.97497933     0.19100
H3200       H  0.07713979  0.61630532  0.79740215     0.12400
C3201       C  0.07379830  0.60331541  0.42447241     0.16300
C3202       C  0.07374047  0.60853288  0.38412414    -0.32700
C3203       C  0.07293630  0.60188891  0.34611362     0.20700
C3204       C  0.07265655  0.59073079  0.34785647     0.02900
C3205       C  0.07268571  0.58547052  0.38835135    -0.22500
C3206       C  0.07302253  0.59192184  0.42653780     0.12100
S3207       S  0.07366480  0.60951074  0.47415859    -0.06100
C3208       C  0.07203307  0.59641431  0.49802096    -0.09600
C3209       C  0.07187950  0.58784302  0.46887142    -0.26200
S3210       S  0.07127174  0.58399031  0.29768280    -0.03400
C3211       C  0.07057697  0.59611657  0.27460222    -0.16800
C3212       C  0.07167607  0.60497468  0.30429602    -0.14800
H3213       H  0.07384352  0.61718948  0.38247576     0.20500
H3214       H  0.07199588  0.57653833  0.39003951     0.16600
H3215       H  0.07050550  0.57892063  0.47808621     0.19100
H3216       H  0.07116093  0.61306443  0.29583235     0.12400
C3217       C  0.09570725  0.65591823  0.62489802     0.16300
C3218       C  0.10599286  0.66784705  0.62435486    -0.32700
C3219       C  0.10452981  0.67733294  0.60683099     0.20700
C3220       C  0.09335488  0.67504223  0.58991332     0.02900
C3221       C  0.08300551  0.66309105  0.59076343    -0.22500
C3222       C  0.08443225  0.65360414  0.60892398     0.12100
S3223       S  0.09570231  0.64321613  0.64460077    -0.06100
C3224       C  0.08027679  0.63460899  0.63191342    -0.09600
C3225       C  0.07549411  0.64138494  0.61319434    -0.26200
S3226       S  0.09359418  0.68788945  0.56995222    -0.03400
C3227       C  0.10883229  0.69646547  0.58558411    -0.16800
C3228       C  0.11339379  0.68957384  0.60466204    -0.14800
H3229       H  0.11476348  0.66967097  0.63728621     0.20500
H3230       H  0.07421972  0.66128172  0.57805644     0.16600
H3231       H  0.06603489  0.63755218  0.60279715     0.19100
H3232       H  0.12270261  0.69335026  0.61672860     0.12400
C3233       C  0.10691267  0.67447813  0.13342441     0.16300
C3234       C  0.10529993  0.66278134  0.14264944    -0.32700
C3235       C  0.09334434  0.65249493  0.13911651     0.20700
C3236       C  0.08346351  0.65387023  0.12760073     0.02900
C3237       C  0.08507151  0.66550155  0.11846217    -0.22500
C3238       C  0.09698824  0.67570305  0.12129898     0.12100
S3239       S  0.12064398  0.68815253  0.13446090    -0.06100
C3240       C  0.11289159  0.69548864  0.11760581    -0.09600
C3241       C  0.10035029  0.68765395  0.11210564    -0.26200
S3242       S  0.06972143  0.64041998  0.12492777    -0.03400
C3243       C  0.07726683  0.63267141  0.13878301    -0.16800
C3244       C  0.08984038  0.64030021  0.14553542    -0.14800
H3245       H  0.11302922  0.66172943  0.15163477     0.20500
H3246       H  0.07736339  0.66653981  0.10897806     0.16600
H3247       H  0.09399999  0.69054543  0.10143036     0.19100
H3248       H  0.09606323  0.63710477  0.15460350     0.12400
C3249       C  0.12459457  0.72345407  0.88154909     0.16300
C3250       C  0.11978830  0.72251621  0.83950526    -0.32700
C3251       C  0.12798810  0.72668414  0.80444393     0.20700
C3252       C  0.14046631  0.73134166  0.81049587     0.02900
C3253       C  0.14532016  0.73222233  0.85293710    -0.22500
C3254       C  0.13707721  0.72825431  0.88846141     0.12100
S3255       S  0.11610975  0.72008242  0.92791150    -0.06100
C3256       C  0.12945482  0.72540839  0.95777385    -0.09600
C3257       C  0.13994546  0.72927900  0.93259866    -0.26200
S3258       S  0.14880222  0.73635792  0.76292255    -0.03400
C3259       C  0.13529691  0.73230254  0.73534180    -0.16800
C3260       C  0.12501259  0.72728570  0.76179393    -0.14800
H3261       H  0.11008029  0.71909349  0.83449065     0.20500
H3262       H  0.15509916  0.73618751  0.85814834     0.16600
H3263       H  0.14918415  0.73342170  0.94571522     0.19100
H3264       H  0.11582433  0.72455453  0.75050516     0.12400
C3265       C  0.14610884  0.74683229  0.38357481     0.16300
C3266       C  0.14760454  0.75265845  0.34338932    -0.32700
C3267       C  0.14828206  0.74663823  0.30593946     0.20700
C3268       C  0.14800446  0.73549208  0.30810448     0.02900
C3269       C  0.14690858  0.72979211  0.34891402    -0.22500
C3270       C  0.14573333  0.73563431  0.38662289     0.12100
S3271       S  0.14293109  0.75181226  0.43073624    -0.06100
C3272       C  0.14079250  0.73860795  0.45543976    -0.09600
C3273       C  0.14286498  0.73090752  0.42851217    -0.26200
S3274       S  0.14747868  0.72914616  0.25756116    -0.03400
C3275       C  0.14720679  0.74148451  0.23407704    -0.16800
C3276       C  0.14792762  0.75012335  0.26396153    -0.14800
H3277       H  0.14737555  0.76113718  0.34107629     0.20500
H3278       H  0.14619218  0.72085577  0.35085747     0.16600
H3279       H  0.14135111  0.72195583  0.43798346     0.19100
H3280       H  0.14733047  0.75816731  0.25546002     0.12400
C3281       C  0.85418494  0.58396279  0.68938628     0.16300
C3282       C  0.85667192  0.58180565  0.73243306    -0.32700
C3283       C  0.85261182  0.58617429  0.76732228     0.20700
C3284       C  0.84628405  0.59234589  0.75951646     0.02900
C3285       C  0.84347311  0.59416685  0.71652262    -0.22500
C3286       C  0.84759722  0.58987281  0.68163857     0.12100
S3287       S  0.85979728  0.58094566  0.64292783    -0.06100
C3288       C  0.85312304  0.58759430  0.61251578    -0.09600
C3289       C  0.84676162  0.59177929  0.63753222    -0.26200
S3290       S  0.84321097  0.59800409  0.80580748    -0.03400
C3291       C  0.85035653  0.59186978  0.83639439    -0.16800
C3292       C  0.85483274  0.58571953  0.81143995    -0.14800
H3293       H  0.86199340  0.57737287  0.73842872     0.20500
H3294       H  0.83870736  0.59916737  0.71048833     0.16600
H3295       H  0.84263406  0.59685618  0.62450349     0.19100
H3296       H  0.85994581  0.58165358  0.82464738     0.12400
C3297       C  0.84902021  0.59188543  0.25701387     0.16300
C3298       C  0.84592652  0.59276376  0.21357338    -0.32700
C3299       C  0.85045135  0.58843175  0.18036909     0.20700
C3300       C  0.85779128  0.58344151  0.18992284     0.02900
C3301       C  0.86056187  0.58216724  0.23371349    -0.22500
C3302       C  0.85600581  0.58652990  0.26709749     0.12100
S3303       S  0.84540004  0.59781273  0.30097057    -0.06100
C3304       C  0.85310531  0.59283727  0.33396495    -0.09600
C3305       C  0.85823477  0.58686866  0.31158877    -0.26200
S3306       S  0.86373963  0.58036111  0.14437446    -0.03400
C3307       C  0.85609104  0.58569151  0.11237946    -0.16800
C3308       C  0.84922601  0.58948113  0.13609401    -0.14800
H3309       H  0.84059945  0.59709419  0.20586057     0.20500
H3310       H  0.86640322  0.57840306  0.24131130     0.16600
H3311       H  0.86376945  0.58352650  0.32671716     0.19100
H3312       H  0.84439470  0.59371920  0.12180524     0.12400
C3313       C  0.93492035  0.47404326  0.89884681     0.16300
C3314       C  0.93986709  0.46625910  0.89951365    -0.32700
C3315       C  0.93237996  0.45403304  0.88547540     0.20700
C3316       C  0.92043490  0.44966613  0.87125303     0.02900
C3317       C  0.91557290  0.45760917  0.86928778    -0.22500
C3318       C  0.92310652  0.46992258  0.88352124     0.12100
S3319       S  0.94236850  0.48886615  0.91770186    -0.06100
C3320       C  0.92956525  0.48979641  0.90456031    -0.09600
C3321       C  0.92003200  0.47903866  0.88600626    -0.26200
S3322       S  0.91264221  0.43415864  0.85908791    -0.03400
C3323       C  0.92571275  0.43368658  0.87276213    -0.16800
C3324       C  0.93548804  0.44502591  0.88574617    -0.14800
H3325       H  0.94909809  0.46952496  0.91158177     0.20500
H3326       H  0.90624314  0.45426303  0.85823719     0.16600
H3327       H  0.91124974  0.47785003  0.87606385     0.19100
H3328       H  0.94434308  0.44652496  0.89640798     0.12400
C3329       C  0.90659751  0.56299324  0.91547456     0.16300
C3330       C  0.90518138  0.57337903  0.91558986    -0.32700
C3331       C  0.89450689  0.57222326  0.93446773     0.20700
C3332       C  0.88551958  0.56114553  0.95190053     0.02900
C3333       C  0.88699787  0.55076448  0.95221613    -0.22500
C3334       C  0.89779198  0.55197794  0.93388832     0.12100
S3335       S  0.91891011  0.56259963  0.89413920    -0.06100
C3336       C  0.91235023  0.54748455  0.91091913    -0.09600
C3337       C  0.90108939  0.54305724  0.93171728    -0.26200
S3338       S  0.87315242  0.56165844  0.97252550    -0.03400
C3339       C  0.88027041  0.57703104  0.95826084    -0.16800
C3340       C  0.89161005  0.58136942  0.93836819    -0.14800
H3341       H  0.91214495  0.58202394  0.90170713     0.20500
H3342       H  0.88006741  0.54214112  0.96632225     0.16600
H3343       H  0.89560505  0.53381473  0.94445781     0.19100
H3344       H  0.89744642  0.59074717  0.92732086     0.12400
C3345       C  0.99307344  0.54746357  0.82093437     0.16300
C3346       C  0.00562863  0.55543273  0.81340630    -0.32700
C3347       C  0.00965709  0.55752572  0.76981354     0.20700
C3348       C  0.00161106  0.55159391  0.73523754     0.02900
C3349       C  0.98904128  0.54356397  0.74275612    -0.22500
C3350       C  0.98494293  0.54181475  0.78632737     0.12100
S3351       S  0.98623985  0.54506014  0.87098204    -0.06100
C3352       C  0.97225959  0.53664174  0.84508183    -0.09600
C3353       C  0.97293983  0.53562866  0.80002866    -0.26200
S3354       S  0.00824425  0.55576826  0.68471204    -0.03400
C3355       C  0.02192274  0.56591081  0.71037803    -0.16800
C3356       C  0.02130619  0.56578588  0.75576667    -0.14800
H3357       H  0.01189692  0.56024074  0.84028597     0.20500
H3358       H  0.98265930  0.53930096  0.71570963     0.16600
H3359       H  0.96505739  0.53140217  0.77821906     0.19100
H3360       H  0.02889000  0.57167961  0.77730293     0.12400
C3361       C  0.98982859  0.57957773  0.97381841     0.16300
C3362       C  0.00268416  0.58532252  0.97584957    -0.32700
C3363       C  0.00823170  0.58796323  0.01746992     0.20700
C3364       C  0.00135003  0.58579546  0.05524751     0.02900
C3365       C  0.98852482  0.58030893  0.05316347    -0.22500
C3366       C  0.98290699  0.57688155  0.01172664     0.12100
S3367       S  0.98133613  0.57312055  0.92749173    -0.06100
C3368       C  0.96836167  0.56618215  0.95956635    -0.09600
C3369       C  0.97057983  0.56918063  0.00371963    -0.26200
S3370       S  0.00951843  0.58838987  0.10264129    -0.03400
C3371       C  0.02220531  0.59172250  0.07144714    -0.16800
C3372       C  0.02022508  0.59134882  0.02656024    -0.14800
H3373       H  0.00801708  0.58665702  0.94647183     0.20500
H3374       H  0.98309130  0.57784738  0.08280776     0.16600
H3375       H  0.96375376  0.56481728  0.02916524     0.19100
H3376       H  0.02692889  0.59258078  0.00197221     0.12400
C3377       C  0.91844257  0.46660239  0.38149211     0.16300
C3378       C  0.91340511  0.45371416  0.38203127    -0.32700
C3379       C  0.92125188  0.44907365  0.37236907     0.20700
C3380       C  0.93346712  0.45695355  0.36177004     0.02900
C3381       C  0.93842292  0.46973648  0.36064328    -0.22500
C3382       C  0.93069052  0.47434993  0.37117616     0.12100
S3383       S  0.91089160  0.47428616  0.39570585    -0.06100
C3384       C  0.92448135  0.48803569  0.38852025    -0.09600
C3385       C  0.93416064  0.48654867  0.37492966    -0.26200
S3386       S  0.94175049  0.44983213  0.35362161    -0.03400
C3387       C  0.92873978  0.43596311  0.36517088    -0.16800
C3388       C  0.91844062  0.43693631  0.37413661    -0.14800
H3389       H  0.90391157  0.44761098  0.39098805     0.20500
H3390       H  0.94804086  0.47587083  0.35331732     0.16600
H3391       H  0.94344525  0.49404911  0.36955278     0.19100
H3392       H  0.90955343  0.42928651  0.38318875     0.12400
C3393       C  0.90752367  0.56561038  0.44120717     0.16300
C3394       C  0.90686546  0.57625569  0.44914123    -0.32700
C3395       C  0.89519372  0.57495083  0.45319657     0.20700
C3396       C  0.88459206  0.56353567  0.44943937     0.02900
C3397       C  0.88524399  0.55286016  0.44092928    -0.22500
C3398       C  0.89697130  0.55416773  0.43694079     0.12100
S3399       S  0.92086573  0.56536682  0.43607625    -0.06100
C3400       C  0.91226711  0.54965796  0.42759405    -0.09600
C3401       C  0.89963146  0.54494886  0.42892010    -0.26200
S3402       S  0.87134549  0.56396483  0.45691458    -0.03400
C3403       C  0.88021102  0.57969176  0.46518015    -0.16800
C3404       C  0.89274990  0.58422725  0.46187742    -0.14800
H3405       H  0.91512729  0.58518435  0.45240361     0.20500
H3406       H  0.87698398  0.54392402  0.43793202     0.16600
H3407       H  0.89277918  0.53533321  0.42416310     0.19100
H3408       H  0.89974970  0.59381066  0.46628425     0.12400
C3409       C  0.99786681  0.55247092  0.22861524     0.16300
C3410       C  0.98514934  0.54637017  0.23517435    -0.32700
C3411       C  0.98095687  0.54424614  0.27849884     0.20700
C3412       C  0.98904906  0.54756847  0.31364463     0.02900
C3413       C  0.00175853  0.55363262  0.30708579    -0.22500
C3414       C  0.00596861  0.55621828  0.26384236     0.12100
S3415       S  0.00477071  0.55692333  0.17881917    -0.06100
C3416       C  0.01869690  0.56433044  0.20581969    -0.09600
C3417       C  0.01796981  0.56310524  0.25097126    -0.26200
S3418       S  0.98223457  0.54458980  0.36368416    -0.03400
C3419       C  0.96839944  0.53929949  0.33705210    -0.16800
C3420       C  0.96904568  0.53955000  0.29176370    -0.14800
H3421       H  0.97883465  0.54386219  0.20778833     0.20500
H3422       H  0.00809427  0.55665309  0.33455706     0.16600
H3423       H  0.02574831  0.56741975  0.27319938     0.19100
H3424       H  0.96130166  0.53680313  0.26988584     0.12400
C3425       C  0.92395856  0.51307118  0.69585170     0.16300
C3426       C  0.92756766  0.51091621  0.65512684    -0.32700
C3427       C  0.92175513  0.51203288  0.61784003     0.20700
C3428       C  0.91257303  0.51498229  0.62067388     0.02900
C3429       C  0.90872578  0.51687439  0.66179228    -0.22500
C3430       C  0.91470976  0.51593325  0.69936721     0.12100
S3431       S  0.93118312  0.51376516  0.74374807    -0.06100
C3432       C  0.92174248  0.51799852  0.76932942    -0.09600
C3433       C  0.91325029  0.51861681  0.74200919    -0.26200
S3434       S  0.90751717  0.51691032  0.57069330    -0.03400
C3435       C  0.91795578  0.51374781  0.54618092    -0.16800
C3436       C  0.92479223  0.51122927  0.57551739    -0.14800
H3437       H  0.93500547  0.50899434  0.65248828     0.20500
H3438       H  0.90176612  0.51947206  0.66426915     0.16600
H3439       H  0.90708793  0.52179522  0.75209541     0.19100
H3440       H  0.93205955  0.50945654  0.56641616     0.12400
C3441       C  0.92130858  0.53007176  0.19436522     0.16300
C3442       C  0.92471365  0.53501894  0.15234179    -0.32700
C3443       C  0.92200109  0.52682486  0.11734658     0.20700
C3444       C  0.91569053  0.51417182  0.12341586     0.02900
C3445       C  0.91214677  0.50917311  0.16575453    -0.22500
C3446       C  0.91531106  0.51745352  0.20125088     0.12100
S3447       S  0.92509082  0.53872960  0.24081249    -0.06100
C3448       C  0.91890095  0.52531993  0.27069258    -0.09600
C3449       C  0.91385292  0.51462889  0.24534615    -0.26200
S3450       S  0.91385796  0.50592861  0.07622669    -0.03400
C3451       C  0.92210060  0.51973295  0.04892226    -0.16800
C3452       C  0.92574533  0.53004662  0.07496310    -0.14800
H3453       H  0.92978522  0.54489616  0.14737900     0.20500
H3454       H  0.90760880  0.49932350  0.17096324     0.16600
H3455       H  0.90991949  0.50540226  0.25836342     0.19100
H3456       H  0.93123412  0.53945707  0.06367981     0.12400
C3457       C  0.00695755  0.58418814  0.52186699     0.16300
C3458       C  0.99835676  0.58024875  0.48753066    -0.32700
C3459       C  0.98598804  0.57206428  0.49777695     0.20700
C3460       C  0.98232101  0.56800421  0.54025995     0.02900
C3461       C  0.99084739  0.57230034  0.57477905    -0.22500
C3462       C  0.00320084  0.58045462  0.56455557     0.12100
S3463       S  0.02256798  0.59239976  0.51543032    -0.06100
C3464       C  0.02398621  0.59092423  0.57094601    -0.09600
C3465       C  0.01291408  0.58455548  0.59293648    -0.26200
S3466       S  0.96721771  0.55681711  0.54499404    -0.03400
C3467       C  0.96575510  0.55776470  0.48923304    -0.16800
C3468       C  0.97646442  0.56637164  0.46848413    -0.14800
H3469       H  0.00124959  0.58292857  0.45399467     0.20500
H3470       H  0.98807172  0.56895381  0.60785097     0.16600
H3471       H  0.01203687  0.58198017  0.62717637     0.19100
H3472       H  0.97743860  0.56775059  0.43335223     0.12400
C3473       C  0.10609474  0.77075576  0.00123390     0.16300
C3474       C  0.09750583  0.77401936  0.98839345    -0.32700
C3475       C  0.09936422  0.78007348  0.94844446     0.20700
C3476       C  0.10944712  0.78298820  0.92235016     0.02900
C3477       C  0.11831239  0.78000579  0.93584580    -0.22500
C3478       C  0.11634510  0.77373940  0.97588230     0.12100
S3479       S  0.10444398  0.76209000  0.04605810    -0.06100
C3480       C  0.11772832  0.76245180  0.03110882    -0.09600
C3481       C  0.12325521  0.76911704  0.99346357    -0.26200
S3482       S  0.10932121  0.78957024  0.87333703    -0.03400
C3483       C  0.09552747  0.78825426  0.88862862    -0.16800
C3484       C  0.09147036  0.78314803  0.92958751    -0.14800
H3485       H  0.08942119  0.77149502  0.00795074     0.20500
H3486       H  0.12612124  0.78206557  0.91539194     0.16600
H3487       H  0.13138876  0.76988045  0.97851102     0.19100
H3488       H  0.08293196  0.78138923  0.94434866     0.12400
C3489       C  0.07993725  0.74006308  0.68724255     0.16300
C3490       C  0.07557655  0.74402796  0.72216019    -0.32700
C3491       C  0.07327800  0.75366770  0.71422628     0.20700
C3492       C  0.07479935  0.75883716  0.67297356     0.02900
C3493       C  0.07849278  0.75439333  0.63748378    -0.22500
C3494       C  0.08123171  0.74506741  0.64581255     0.12100
S3495       S  0.08650085  0.73112449  0.69313523    -0.06100
C3496       C  0.09123523  0.73434324  0.63956476    -0.09600
C3497       C  0.08738890  0.74151509  0.61808348    -0.26200
S3498       S  0.07373536  0.77186314  0.67185482    -0.03400
C3499       C  0.07128638  0.77035703  0.72760796    -0.16800
C3500       C  0.07100258  0.76009132  0.74548504    -0.14800
H3501       H  0.07511521  0.74057130  0.75499638     0.20500
H3502       H  0.08026080  0.75879334  0.60573293     0.16600
H3503       H  0.09061755  0.74551262  0.58599174     0.19100
H3504       H  0.07030820  0.75807961  0.78021242     0.12400
C3505       C  0.11552984  0.78977055  0.42656915     0.16300
C3506       C  0.12328327  0.78528532  0.43836599    -0.32700
C3507       C  0.12221870  0.78070066  0.48094059     0.20700
C3508       C  0.11419745  0.78109064  0.51111713     0.02900
C3509       C  0.10668705  0.78587567  0.49970444    -0.22500
C3510       C  0.10732415  0.78988563  0.45652389     0.12100
S3511       S  0.11396069  0.79378599  0.37454369    -0.06100
C3512       C  0.10184275  0.79512876  0.39316511    -0.09600
C3513       C  0.09943107  0.79295520  0.43744657    -0.26200
S3514       S  0.11301142  0.77361051  0.55892605    -0.03400
C3515       C  0.12322376  0.76973015  0.53769645    -0.16800
C3516       C  0.12747924  0.77419437  0.49619772    -0.14800
H3517       H  0.12924429  0.78458441  0.41448633     0.20500
H3518       H  0.09998611  0.78562011  0.52247770     0.16600
H3519       H  0.09180330  0.79285761  0.45409219     0.19100
H3520       H  0.13325553  0.77190399  0.47689330     0.12400
C3521       C  0.06642942  0.81504842  0.60403455     0.16300
C3522       C  0.06035442  0.81297011  0.56338003    -0.32700
C3523       C  0.06708953  0.81404076  0.52520650     0.20700
C3524       C  0.07930149  0.81711569  0.52773452     0.02900
C3525       C  0.08533056  0.81925251  0.56802801    -0.22500
C3526       C  0.07862864  0.81810303  0.60585500     0.12100
S3527       S  0.05987209  0.81341965  0.65460732    -0.06100
C3528       C  0.07373348  0.81678063  0.67787764    -0.09600
C3529       C  0.08284500  0.81914708  0.64779014    -0.26200
S3530       S  0.08571790  0.81697616  0.47899103    -0.03400
C3531       C  0.07188645  0.81277591  0.45427159    -0.16800
C3532       C  0.06274849  0.81156062  0.48267014    -0.14800
H3533       H  0.05074822  0.81030595  0.56165307     0.20500
H3534       H  0.09477674  0.82135799  0.56989253     0.16600
H3535       H  0.09199220  0.82103232  0.65613426     0.19100
H3536       H  0.05330782  0.80826264  0.47317741     0.12400
C3537       C  0.07307938  0.81621104  0.09896155     0.16300
C3538       C  0.07560230  0.82133239  0.05677800    -0.32700
C3539       C  0.06925709  0.81347744  0.02138124     0.20700
C3540       C  0.06051912  0.80119209  0.02803037     0.02900
C3541       C  0.05793323  0.79611496  0.07005929    -0.22500
C3542       C  0.06456941  0.80383306  0.10512090     0.12100
S3543       S  0.08042399  0.82389046  0.14591444    -0.06100
C3544       C  0.07216842  0.81018663  0.17350939    -0.09600
C3545       C  0.06410686  0.80029611  0.14776134    -0.26200
S3546       S  0.05440249  0.79291139  0.98130154    -0.03400
C3547       C  0.06398835  0.80598674  0.95203259    -0.16800
C3548       C  0.07124842  0.81633193  0.97757428    -0.14800
H3549       H  0.08254132  0.83088151  0.05163236     0.20500
H3550       H  0.05140214  0.78642473  0.07500044     0.16600
H3551       H  0.05841663  0.79096350  0.15951997     0.19100
H3552       H  0.07807453  0.82522134  0.96489736     0.12400
C3553       C  0.08769168  0.74149645  0.23088260     0.16300
C3554       C  0.08381358  0.74585481  0.26613112    -0.32700
C3555       C  0.07661962  0.75118626  0.25659295     0.20700
C3556       C  0.07314952  0.75186280  0.21401028     0.02900
C3557       C  0.07660164  0.74704410  0.17896551    -0.22500
C3558       C  0.08406886  0.74201885  0.18836369     0.12100
S3559       S  0.09855316  0.73719599  0.23449315    -0.06100
C3560       C  0.09814128  0.73604382  0.17822471    -0.09600
C3561       C  0.08992594  0.73874335  0.15813976    -0.26200
S3562       S  0.06662529  0.76084616  0.20827885    -0.03400
C3563       C  0.06863774  0.76378247  0.26374244    -0.16800
C3564       C  0.07385859  0.75783295  0.28526114    -0.14800
H3565       H  0.08708213  0.74599714  0.29911579     0.20500
H3566       H  0.07441029  0.74807726  0.14546748     0.16600
H3567       H  0.08924240  0.73952227  0.12300895     0.19100
H3568       H  0.07696186  0.75961281  0.31906356     0.12400
C3569       C  0.89025519  0.67908450  0.61609660     0.16300
C3570       C  0.88698375  0.67217981  0.57715341    -0.32700
C3571       C  0.88174954  0.65936994  0.58057217     0.20700
C3572       C  0.87962305  0.65363433  0.62098271     0.02900
C3573       C  0.88258612  0.66050271  0.65998396    -0.22500
C3574       C  0.88804701  0.67334003  0.65652575     0.12100
S3575       S  0.89840249  0.69482245  0.61868105    -0.06100
C3576       C  0.89874192  0.69363080  0.67471737    -0.09600
C3577       C  0.89283833  0.68167057  0.69032934    -0.26200
S3578       S  0.87433807  0.63817436  0.61801371    -0.03400
C3579       C  0.87511888  0.63947295  0.56172139    -0.16800
C3580       C  0.87903660  0.65126225  0.54645098    -0.14800
H3581       H  0.88901225  0.67665552  0.54551856     0.20500
H3582       H  0.88126134  0.65610241  0.69156712     0.16600
H3583       H  0.89292099  0.67922149  0.72430039     0.19100
H3584       H  0.88044571  0.65388776  0.51224356     0.12400
C3585       C  0.99095118  0.75705161  0.76868857     0.16300
C3586       C  0.00295704  0.75931428  0.76403344    -0.32700
C3587       C  0.01257382  0.77050728  0.78008974     0.20700
C3588       C  0.01039109  0.77916517  0.79978805     0.02900
C3589       C  0.99831866  0.77691166  0.80436394    -0.22500
C3590       C  0.98863643  0.76562030  0.78841821     0.12100
S3591       S  0.97816394  0.74401894  0.75091248    -0.06100
C3592       C  0.96941537  0.75004385  0.76996868    -0.09600
C3593       C  0.97623945  0.76162908  0.78937862    -0.26200
S3594       S  0.02344572  0.79205577  0.81793993    -0.03400
C3595       C  0.03184956  0.78558882  0.79912155    -0.16800
C3596       C  0.02480468  0.77413208  0.77954192    -0.14800
H3597       H  0.00472640  0.75258235  0.74869268     0.20500
H3598       H  0.99655060  0.78362179  0.81986381     0.16600
H3599       H  0.97237698  0.76693304  0.80261724     0.19100
H3600       H  0.02842501  0.76859980  0.76636661     0.12400
C3601       C  0.91485947  0.66911079  0.81729459     0.16300
C3602       C  0.90747750  0.65623633  0.81825326    -0.32700
C3603       C  0.90604401  0.65034002  0.85855097     0.20700
C3604       C  0.91215594  0.65691075  0.89592088     0.02900
C3605       C  0.91968142  0.66981323  0.89484598    -0.22500
C3606       C  0.92069062  0.67578780  0.85485872     0.12100
S3607       S  0.91603780  0.67794333  0.77327780    -0.06100
C3608       C  0.92426731  0.69083513  0.80565524    -0.09600
C3609       C  0.92610786  0.68832063  0.84839012    -0.26200
S3610       S  0.90825980  0.64817858  0.94239617    -0.03400
C3611       C  0.89784203  0.63568767  0.91158603    -0.16800
C3612       C  0.89783594  0.63818031  0.86730983    -0.14800
H3613       H  0.90242498  0.65111481  0.78940375     0.20500
H3614       H  0.92394476  0.67502128  0.92448582     0.16600
H3615       H  0.93024535  0.69518546  0.87415093     0.19100
H3616       H  0.89146966  0.63168067  0.84341749     0.12400
C3617       C  0.89073930  0.67570753  0.12758657     0.16300
C3618       C  0.88495659  0.66829968  0.09051916    -0.32700
C3619       C  0.88298604  0.65622402  0.09020682     0.20700
C3620       C  0.88643085  0.65169558  0.12549469     0.02900
C3621       C  0.89206176  0.65901744  0.16251664    -0.22500
C3622       C  0.89417953  0.67107503  0.16253861     0.12100
S3623       S  0.89511131  0.69099440  0.13327530    -0.06100
C3624       C  0.90160771  0.69098517  0.18304623    -0.09600
C3625       C  0.90034301  0.67975829  0.19425340    -0.26200
S3626       S  0.88385644  0.63711316  0.11836237    -0.03400
C3627       C  0.87820544  0.63704526  0.06685299    -0.16800
C3628       C  0.87821204  0.64781168  0.05636242    -0.14800
H3629       H  0.88246527  0.67190320  0.06264204     0.20500
H3630       H  0.89501109  0.65558296  0.18965562     0.16600
H3631       H  0.90428152  0.67820290  0.22333818     0.19100
H3632       H  0.87522457  0.64952317  0.02521346     0.12400
C3633       C  0.99174523  0.75710454  0.29046024     0.16300
C3634       C  0.00310312  0.75852360  0.30278531    -0.32700
C3635       C  0.01342147  0.77040810  0.30169575     0.20700
C3636       C  0.01254433  0.78045304  0.28819168     0.02900
C3637       C  0.00111064  0.77905566  0.27633783    -0.22500
C3638       C  0.99070513  0.76715184  0.27816769     0.12100
S3639       S  0.97830720  0.74335187  0.28844504    -0.06100
C3640       C  0.97102679  0.75113517  0.27179087    -0.09600
C3641       C  0.97874478  0.76379831  0.26794285    -0.26200
S3642       S  0.02631929  0.79403080  0.28781372    -0.03400
C3643       C  0.03323673  0.78611001  0.30714850    -0.16800
C3644       C  0.02520779  0.77360065  0.31293230    -0.14800
H3645       H  0.00386846  0.75067279  0.31270610     0.20500
H3646       H  0.00036534  0.78689043  0.26608431     0.16600
H3647       H  0.97583836  0.77011782  0.25700590     0.19100
H3648       H  0.02788579  0.76713768  0.32431745     0.12400
C3649       C  0.93462636  0.74637461  0.04309024     0.16300
C3650       C  0.93176359  0.74989072  0.00294157    -0.32700
C3651       C  0.93292052  0.74435024  0.96436013     0.20700
C3652       C  0.93694574  0.73592118  0.96611109     0.02900
C3653       C  0.94003777  0.73268450  0.00563498    -0.22500
C3654       C  0.93865980  0.73796745  0.04375859     0.12100
S3655       S  0.93275306  0.75083270  0.09444700    -0.06100
C3656       C  0.93724544  0.74102508  0.11610306    -0.09600
C3657       C  0.94024110  0.73497367  0.08503661    -0.26200
S3658       S  0.93665790  0.72915227  0.91776381    -0.03400
C3659       C  0.93093358  0.73759067  0.89411605    -0.16800
C3660       C  0.92959930  0.74553003  0.92233072    -0.14800
H3661       H  0.92832565  0.75622415  0.00198003     0.20500
H3662       H  0.94287735  0.72586943  0.00680783     0.16600
H3663       H  0.94296454  0.72825533  0.09227813     0.19100
H3664       H  0.92569890  0.75115894  0.91325126     0.12400
C3665       C  0.93691847  0.74823918  0.54335994     0.16300
C3666       C  0.93345851  0.75060846  0.50222300    -0.32700
C3667       C  0.93556362  0.74526821  0.46499461     0.20700
C3668       C  0.94111845  0.73818995  0.46882500     0.02900
C3669       C  0.94493284  0.73622556  0.50934531    -0.22500
C3670       C  0.94253596  0.74121572  0.54627938     0.12100
S3671       S  0.93346733  0.75200895  0.59338138    -0.06100
C3672       C  0.93931771  0.74365510  0.61756756    -0.09600
C3673       C  0.94406098  0.73872229  0.58843514    -0.26200
S3674       S  0.94159143  0.73118173  0.42186602    -0.03400
C3675       C  0.93425561  0.73779757  0.39607045    -0.16800
C3676       C  0.93175201  0.74526032  0.42260565    -0.14800
H3677       H  0.92871522  0.75574535  0.49962188     0.20500
H3678       H  0.94890478  0.73037326  0.51226882     0.16600
H3679       H  0.94759821  0.73277307  0.59757229     0.19100
H3680       H  0.92673882  0.74971253  0.41217452     0.12400
C3681       C  0.91561020  0.65859837  0.40483207     0.16300
C3682       C  0.92321692  0.67146254  0.40299674    -0.32700
C3683       C  0.92556598  0.67705649  0.36160709     0.20700
C3684       C  0.92106332  0.67006745  0.32362774     0.02900
C3685       C  0.91365226  0.65720858  0.32539551    -0.22500
C3686       C  0.91077802  0.65169363  0.36684873     0.12100
S3687       S  0.90993577  0.65037064  0.45202064    -0.06100
C3688       C  0.90049126  0.63764789  0.42029126    -0.09600
C3689       C  0.90212320  0.63967346  0.37551079    -0.26200
S3690       S  0.92345038  0.67851920  0.27735388    -0.03400
C3691       C  0.93016388  0.69163182  0.30935758    -0.16800
C3692       C  0.93081910  0.68946984  0.35357024    -0.14800
H3693       H  0.92639280  0.67694504  0.43273350     0.20500
H3694       H  0.90952305  0.65183904  0.29591611     0.16600
H3695       H  0.89655415  0.63297538  0.35063997     0.19100
H3696       H  0.93371153  0.69644867  0.37896101     0.12400
C3697       C  0.86493976  0.74625673  0.73057570     0.16300
C3698       C  0.87778717  0.75152672  0.73461635    -0.32700
C3699       C  0.88260857  0.74354796  0.73345447     0.20700
C3700       C  0.87492117  0.73094666  0.72794715     0.02900
C3701       C  0.86222203  0.72577536  0.72264486    -0.22500
C3702       C  0.85742661  0.73367176  0.72446432     0.12100
S3703       S  0.85698512  0.75397962  0.73555939    -0.06100
C3704       C  0.84344533  0.74005844  0.72955447    -0.09600
C3705       C  0.84520468  0.73011212  0.72339933    -0.26200
S3706       S  0.88207131  0.72256288  0.73200244    -0.03400
C3707       C  0.89568720  0.73607502  0.74109754    -0.16800
C3708       C  0.89468298  0.74660606  0.74030707    -0.14800
H3709       H  0.88369445  0.76132636  0.74013733     0.20500
H3710       H  0.85624928  0.71590530  0.71910067     0.16600
H3711       H  0.83785975  0.72062263  0.72015491     0.19100
H3712       H  0.90218434  0.75584165  0.74693558     0.12400
C3713       C  0.86373082  0.74033324  0.23341042     0.16300
C3714       C  0.87588541  0.74388483  0.22161746    -0.32700
C3715       C  0.88155076  0.73813425  0.24323462     0.20700
C3716       C  0.87531896  0.72928612  0.27502528     0.02900
C3717       C  0.86325782  0.72573182  0.28656289    -0.22500
C3718       C  0.85765061  0.73143923  0.26513058     0.12100
S3719       S  0.85506504  0.74609217  0.21173934    -0.06100
C3720       C  0.84319658  0.73636205  0.24588614    -0.09600
C3721       C  0.84597273  0.72913453  0.27232317    -0.26200
S3722       S  0.88350282  0.72334835  0.29787375    -0.03400
C3723       C  0.89561787  0.73279031  0.26439371    -0.16800
C3724       C  0.89329282  0.74019367  0.23682714    -0.14800
H3725       H  0.88070063  0.75081158  0.19681495     0.20500
H3726       H  0.85843599  0.71879418  0.31136302     0.16600
H3727       H  0.83973008  0.72247627  0.29578405     0.19100
H3728       H  0.89977641  0.74665627  0.21347389     0.12400
C3729       C  0.81946105  0.74182518  0.02510724     0.16300
C3730       C  0.82145682  0.73802978  0.98434697    -0.32700
C3731       C  0.81978834  0.74341623  0.94687555     0.20700
C3732       C  0.81659494  0.75245118  0.94968698     0.02900
C3733       C  0.81486472  0.75647209  0.99069348    -0.22500
C3734       C  0.81624099  0.75084593  0.02834527     0.12100
S3735       S  0.81931244  0.73505721  0.07347750    -0.06100
C3736       C  0.81489405  0.74444289  0.09872537    -0.09600
C3737       C  0.81368552  0.75247327  0.07089036    -0.26200
S3738       S  0.81399698  0.75701667  0.89995089    -0.03400
C3739       C  0.81695900  0.74641336  0.87543345    -0.16800
C3740       C  0.82009996  0.73999393  0.90450818    -0.14800
H3741       H  0.82359862  0.73071871  0.98186174     0.20500
H3742       H  0.81200580  0.76325509  0.99305047     0.16600
H3743       H  0.81022994  0.75844749  0.08065628     0.19100
H3744       H  0.82194805  0.73275784  0.89527807     0.12400
C3745       C  0.80355448  0.74100449  0.45070527     0.16300
C3746       C  0.79769296  0.73964448  0.49068714    -0.32700
C3747       C  0.80505571  0.74433382  0.52802105     0.20700
C3748       C  0.81775311  0.75012415  0.52602785     0.02900
C3749       C  0.82369258  0.75167691  0.48559187    -0.22500
C3750       C  0.81626769  0.74699320  0.44787813     0.12100
S3751       S  0.79597114  0.73503927  0.40281549    -0.06100
C3752       C  0.81000563  0.74080657  0.37797723    -0.09600
C3753       C  0.82008805  0.74704270  0.40560545    -0.26200
S3754       S  0.82482501  0.75424563  0.57627281    -0.03400
C3755       C  0.81047205  0.74811742  0.59960292    -0.16800
C3756       C  0.80086226  0.74327892  0.56980495    -0.14800
H3757       H  0.78776284  0.73484414  0.49275648     0.20500
H3758       H  0.83359743  0.75606807  0.48374788     0.16600
H3759       H  0.82955905  0.75079879  0.39578748     0.19100
H3760       H  0.79121950  0.73866557  0.57839783     0.12400
C3761       C  0.73787942  0.86202203  0.80827820     0.16300
C3762       C  0.74271469  0.87477040  0.81425190    -0.32700
C3763       C  0.73467013  0.87938623  0.80917128     0.20700
C3764       C  0.72231255  0.87155478  0.79995858     0.02900
C3765       C  0.71752143  0.85889711  0.79375554    -0.22500
C3766       C  0.72560719  0.85437880  0.79744423     0.12100
S3767       S  0.74608668  0.85454003  0.81115850    -0.06100
C3768       C  0.73292920  0.84115097  0.79582064    -0.09600
C3769       C  0.72275862  0.84247660  0.78993770    -0.26200
S3770       S  0.71398036  0.87872793  0.79510383    -0.03400
C3771       C  0.72728776  0.89258360  0.80429446    -0.16800
C3772       C  0.73763418  0.89155504  0.81123709    -0.14800
H3773       H  0.75235698  0.88084639  0.82161493     0.20500
H3774       H  0.70793074  0.85285710  0.78543322     0.16600
H3775       H  0.71373883  0.83509471  0.78017870     0.19100
H3776       H  0.74679696  0.89926127  0.81699491     0.12400
C3777       C  0.75584330  0.76825931  0.78652092     0.16300
C3778       C  0.75781972  0.75820371  0.78731660    -0.32700
C3779       C  0.76897712  0.75994286  0.77067032     0.20700
C3780       C  0.77783893  0.77126452  0.75445116     0.02900
C3781       C  0.77581326  0.78129595  0.75325170    -0.22500
C3782       C  0.76458584  0.77950719  0.76940733     0.12100
S3783       S  0.74293639  0.76799717  0.80528539    -0.06100
C3784       C  0.74921471  0.78314873  0.78927761    -0.09600
C3785       C  0.76080155  0.78806258  0.77056831    -0.26200
S3786       S  0.79082969  0.77154137  0.73646818    -0.03400
C3787       C  0.78423888  0.75617138  0.75020533    -0.16800
C3788       C  0.77254220  0.75123065  0.76801449    -0.14800
H3789       H  0.75092917  0.74938186  0.80026785     0.20500
H3790       H  0.78268311  0.79010688  0.74015453     0.16600
H3791       H  0.76618996  0.79740744  0.75861552     0.19100
H3792       H  0.76693711  0.74176188  0.77848637     0.12400
C3793       C  0.74111029  0.88107500  0.30132507     0.16300
C3794       C  0.74683801  0.87415500  0.31010437    -0.32700
C3795       C  0.74003131  0.86137930  0.30184509     0.20700
C3796       C  0.72808603  0.85588224  0.28590603     0.02900
C3797       C  0.72255048  0.86279405  0.27607490    -0.22500
C3798       C  0.72931105  0.87545160  0.28407008     0.12100
S3799       S  0.74734044  0.89653859  0.31096140    -0.06100
C3800       C  0.73392753  0.89527575  0.29092126    -0.09600
C3801       C  0.72523475  0.88353241  0.27746986    -0.26200
S3802       S  0.72091600  0.84036266  0.28037034    -0.03400
C3803       C  0.73415312  0.84107077  0.29875704    -0.16800
C3804       C  0.74370663  0.85285997  0.30863928    -0.14800
H3805       H  0.75607451  0.87848865  0.32335115     0.20500
H3806       H  0.71324746  0.85843404  0.26338369     0.16600
H3807       H  0.71626552  0.88098141  0.26431834     0.19100
H3808       H  0.75264713  0.85501440  0.32083533     0.12400
C3809       C  0.76018823  0.77044939  0.24644900     0.16300
C3810       C  0.76187710  0.76094067  0.23026853    -0.32700
C3811       C  0.77322869  0.76172669  0.23816772     0.20700
C3812       C  0.78252175  0.77156669  0.26113481     0.02900
C3813       C  0.78092122  0.78122640  0.27657166    -0.22500
C3814       C  0.76954024  0.78043457  0.26868682     0.12100
S3815       S  0.74680307  0.77072376  0.24277613    -0.06100
C3816       C  0.75384805  0.78453688  0.27102367    -0.09600
C3817       C  0.76600412  0.78864238  0.28241248    -0.26200
S3818       S  0.79536298  0.77042078  0.26919078    -0.03400
C3819       C  0.78818791  0.75657960  0.24095569    -0.16800
C3820       C  0.77645536  0.75318332  0.22619804    -0.14800
H3821       H  0.75455492  0.75312593  0.21301359     0.20500
H3822       H  0.78814836  0.78890702  0.29465668     0.16600
H3823       H  0.77179218  0.79694744  0.30111206     0.19100
H3824       H  0.77048384  0.74476132  0.20836656     0.12400
C3825       C  0.74451950  0.80514392  0.58109951     0.16300
C3826       C  0.74450773  0.79950948  0.54141430    -0.32700
C3827       C  0.74729481  0.80654205  0.50315942     0.20700
C3828       C  0.75028021  0.81876910  0.50434113     0.02900
C3829       C  0.75057805  0.82451849  0.54432552    -0.22500
C3830       C  0.74750360  0.81738066  0.58262818     0.12100
S3831       S  0.73968456  0.79758278  0.62970711    -0.06100
C3832       C  0.74168497  0.81099548  0.65263843    -0.09600
C3833       C  0.74600324  0.82085022  0.62397654    -0.26200
S3834       S  0.75217630  0.82528318  0.45363684    -0.03400
C3835       C  0.74867154  0.81130410  0.43071054    -0.16800
C3836       C  0.74645339  0.80225413  0.46119080    -0.14800
H3837       H  0.74181242  0.78985329  0.54012318     0.20500
H3838       H  0.75253252  0.83395238  0.54525825     0.16600
H3839       H  0.74711930  0.82974905  0.63214827     0.19100
H3840       H  0.74362283  0.79278916  0.45305168     0.12400
C3841       C  0.74392770  0.81070137  0.00739938     0.16300
C3842       C  0.74926084  0.81193106  0.04919189    -0.32700
C3843       C  0.74273714  0.81238897  0.08596541     0.20700
C3844       C  0.73153892  0.81183605  0.08091667     0.02900
C3845       C  0.72620293  0.81050247  0.03951702    -0.22500
C3846       C  0.73257960  0.80984694  0.00313449     0.12100
S3847       S  0.75005378  0.80969683  0.95836063    -0.06100
C3848       C  0.73701642  0.80781498  0.93247487    -0.09600
C3849       C  0.72855160  0.80809086  0.96057735    -0.26200
S3850       S  0.72492835  0.81248239  0.12858991    -0.03400
C3851       C  0.73720604  0.81329044  0.15655723    -0.16800
C3852       C  0.74603839  0.81315233  0.12962979    -0.14800
H3853       H  0.75801102  0.81236741  0.05290024     0.20500
H3854       H  0.71734435  0.80984280  0.03586701     0.16600
H3855       H  0.71978465  0.80690995  0.95035821     0.19100
H3856       H  0.75427526  0.81340522  0.14130865     0.12400
C3857       C  0.45338472  0.53245675  0.62672415     0.16300
C3858       C  0.46108153  0.54534922  0.62403697    -0.32700
C3859       C  0.47375366  0.55033932  0.63168109     0.20700
C3860       C  0.47843245  0.54277604  0.64214657     0.02900
C3861       C  0.47077066  0.52996429  0.64507225    -0.22500
C3862       C  0.45819501  0.52499715  0.63688497     0.12100
S3863       S  0.43787623  0.52443961  0.61634774    -0.06100
C3864       C  0.43792479  0.51090893  0.62552032    -0.09600
C3865       C  0.44942484  0.51270336  0.63631529    -0.26200
S3866       S  0.49398652  0.55030538  0.64801181    -0.03400
C3867       C  0.49443636  0.56390594  0.63542297    -0.16800
C3868       C  0.48291934  0.56254375  0.62795676    -0.14800
H3869       H  0.45739768  0.55119482  0.61533794     0.20500
H3870       H  0.47451108  0.52407889  0.65240469     0.16600
H3871       H  0.45134893  0.50535693  0.64235641     0.19100
H3872       H  0.48138318  0.56994140  0.61835660     0.12400
C3873       C  0.47253986  0.54819729  0.12201445     0.16300
C3874       C  0.46071617  0.53966412  0.13734282    -0.32700
C3875       C  0.45400129  0.52845192  0.11427717     0.20700
C3876       C  0.45891202  0.52594508  0.07773148     0.02900
C3877       C  0.47062166  0.53443938  0.06241961    -0.22500
C3878       C  0.47728763  0.54555891  0.08534821     0.12100
S3879       S  0.48241867  0.56220583  0.14554790    -0.06100
C3880       C  0.49302275  0.56436763  0.10569240    -0.09600
C3881       C  0.48893685  0.55476533  0.07576691    -0.26200
S3882       S  0.44962893  0.51195025  0.05426408    -0.03400
C3883       C  0.43878716  0.50930829  0.09354937    -0.16800
C3884       C  0.44236979  0.51886813  0.12365701    -0.14800
H3885       H  0.45696045  0.54164063  0.16605625     0.20500
H3886       H  0.47442557  0.53241614  0.03392277     0.16600
H3887       H  0.49430579  0.55443402  0.04867549     0.19100
H3888       H  0.43682352  0.51879105  0.15082695     0.12400
C3889       C  0.53628678  0.61071644  0.82872407     0.16300
C3890       C  0.54106072  0.61158457  0.87082163    -0.32700
C3891       C  0.53285448  0.60769146  0.90593718     0.20700
C3892       C  0.52043086  0.60333969  0.89987256     0.02900
C3893       C  0.51561130  0.60240543  0.85742264    -0.22500
C3894       C  0.52382823  0.60607545  0.82193372     0.12100
S3895       S  0.54479949  0.61451707  0.78218136    -0.06100
C3896       C  0.53145919  0.60958372  0.75256288    -0.09600
C3897       C  0.52095980  0.60529876  0.77796591    -0.26200
S3898       S  0.51204155  0.59862711  0.94739290    -0.03400
C3899       C  0.52540179  0.60220673  0.97497952    -0.16800
C3900       C  0.53572529  0.60704576  0.94865246    -0.14800
H3901       H  0.55073888  0.61487683  0.87589865     0.20500
H3902       H  0.50587197  0.59870281  0.85220762     0.16600
H3903       H  0.51175283  0.60159521  0.76500292     0.19100
H3904       H  0.54482791  0.60946730  0.95999089     0.12400
C3905       C  0.51834723  0.58950943  0.32902969     0.16300
C3906       C  0.51637065  0.58352637  0.36941062    -0.32700
C3907       C  0.51668942  0.59001417  0.40728479     0.20700
C3908       C  0.51855982  0.60185101  0.40505123     0.02900
C3909       C  0.52020961  0.60774390  0.36436784    -0.22500
C3910       C  0.52019540  0.60134266  0.32638396     0.12100
S3911       S  0.52001323  0.58373957  0.28060950    -0.06100
C3912       C  0.52328387  0.59737002  0.25607310    -0.09600
C3913       C  0.52287489  0.60587421  0.28418793    -0.26200
S3914       S  0.51979314  0.60852522  0.45526299    -0.03400
C3915       C  0.51800862  0.59531103  0.47940527    -0.16800
C3916       C  0.51625913  0.58618356  0.44967468    -0.14800
H3917       H  0.51526899  0.57442057  0.37141387     0.20500
H3918       H  0.52201836  0.61711749  0.36260907     0.16600
H3919       H  0.52523763  0.61512109  0.27494753     0.19100
H3920       H  0.51541213  0.57745025  0.45851995     0.12400
C3921       C  0.60772056  0.79881570  0.58892326     0.16300
C3922       C  0.61122475  0.81091650  0.60025866    -0.32700
C3923       C  0.60404529  0.81566626  0.58463242     0.20700
C3924       C  0.59384974  0.80880743  0.55818233     0.02900
C3925       C  0.59034819  0.79659024  0.54639550    -0.22500
C3926       C  0.59752211  0.79172945  0.56263778     0.12100
S3927       S  0.61504917  0.79145633  0.60712002    -0.06100
C3928       C  0.60428275  0.77846633  0.57962273    -0.09600
C3929       C  0.59553443  0.77994984  0.55678331    -0.26200
S3930       S  0.58650390  0.81664701  0.54307721    -0.03400
C3931       C  0.59730817  0.82914665  0.57318507    -0.16800
C3932       C  0.60602279  0.82717983  0.59333374    -0.14800
H3933       H  0.61914643  0.81636550  0.62108758     0.20500
H3934       H  0.58233992  0.79109336  0.52604524     0.16600
H3935       H  0.58797428  0.77274796  0.53820427     0.19100
H3936       H  0.61357274  0.83392515  0.61328058     0.12400
C3937       C  0.68509982  0.78303690  0.45800258     0.16300
C3938       C  0.67796301  0.77698708  0.49459624    -0.32700
C3939       C  0.66687589  0.77684608  0.49977705     0.20700
C3940       C  0.66316385  0.78280693  0.47071866     0.02900
C3941       C  0.67038872  0.78897523  0.43408826    -0.22500
C3942       C  0.68133771  0.78875943  0.42805952     0.12100
S3943       S  0.69832947  0.78331168  0.44449438    -0.06100
C3944       C  0.69872221  0.79091119  0.39714996    -0.09600
C3945       C  0.68913953  0.79329005  0.39280837    -0.26200
S3946       S  0.64887845  0.78067123  0.48149386    -0.03400
C3947       C  0.64786048  0.77135160  0.52447142    -0.16800
C3948       C  0.65815025  0.77027837  0.53051833    -0.14800
H3949       H  0.68068981  0.77214601  0.51711321     0.20500
H3950       H  0.66736024  0.79328750  0.41039897     0.16600
H3951       H  0.68779488  0.79779816  0.36493213     0.19100
H3952       H  0.65888563  0.76436564  0.55461326     0.12400
C3953       C  0.56794189  0.66036165  0.57047458     0.16300
C3954       C  0.57823333  0.67182829  0.56044212    -0.32700
C3955       C  0.57762790  0.68245434  0.56976846     0.20700
C3956       C  0.56723853  0.68170031  0.58821703     0.02900
C3957       C  0.55688984  0.67022293  0.59766763    -0.22500
C3958       C  0.55749098  0.65958920  0.58845829     0.12100
S3959       S  0.56719470  0.64648426  0.56476162    -0.06100
C3960       C  0.55268173  0.63952304  0.58732153    -0.09600
C3961       C  0.54863527  0.64763922  0.59765736    -0.26200
S3962       S  0.56844192  0.69567237  0.59808760    -0.03400
C3963       C  0.58301452  0.70263886  0.57633621    -0.16800
C3964       C  0.58669822  0.69443788  0.56277839    -0.14800
H3965       H  0.58643641  0.67244868  0.54667614     0.20500
H3966       H  0.54878948  0.66961700  0.61230003     0.16600
H3967       H  0.53995686  0.64502249  0.61325553     0.19100
H3968       H  0.59555911  0.69710824  0.54857884     0.12400
C3969       C  0.65430114  0.74046135  0.69369243     0.16300
C3970       C  0.66302137  0.74448218  0.72746572    -0.32700
C3971       C  0.67543768  0.75121981  0.71572898     0.20700
C3972       C  0.67905934  0.75344838  0.67221850     0.02900
C3973       C  0.67035087  0.74865032  0.63834212    -0.22500
C3974       C  0.65791964  0.74234352  0.65014461     0.12100
S3975       S  0.63915420  0.73571460  0.70156638    -0.06100
C3976       C  0.63772658  0.73631794  0.64574705    -0.09600
C3977       C  0.64833718  0.73960405  0.62247668    -0.26200
S3978       S  0.69415056  0.76435431  0.66504341    -0.03400
C3979       C  0.69556349  0.76581002  0.72115803    -0.16800
C3980       C  0.68495625  0.75807164  0.74387926    -0.14800
H3981       H  0.66025183  0.74361609  0.76146770     0.20500
H3982       H  0.67309282  0.75092085  0.60444940     0.16600
H3983       H  0.64939693  0.74169219  0.58776999     0.19100
H3984       H  0.68387690  0.75865765  0.77888509     0.12400
C3985       C  0.59397950  0.79085513  0.05545635     0.16300
C3986       C  0.59046260  0.79928149  0.04057769    -0.32700
C3987       C  0.59551829  0.81080244  0.06228272     0.20700
C3988       C  0.60363213  0.81362240  0.09704752     0.02900
C3989       C  0.60712668  0.80531922  0.11159383    -0.22500
C3990       C  0.60215825  0.79396666  0.09010478     0.12100
S3991       S  0.58924617  0.77642464  0.03408014    -0.06100
C3992       C  0.59858620  0.77485340  0.07204033    -0.09600
C3993       C  0.60478171  0.78493506  0.09967162    -0.26200
S3994       S  0.60874765  0.82770169  0.11999250    -0.03400
C3995       C  0.59992344  0.83016519  0.08275515    -0.16800
C3996       C  0.59336360  0.82037909  0.05363447    -0.14800
H3997       H  0.58412047  0.79698024  0.01340562     0.20500
H3998       H  0.61351135  0.80763821  0.13867548     0.16600
H3999       H  0.61110542  0.78572276  0.12530699     0.19100
H4000       H  0.58731214  0.82022580  0.02810301     0.12400
C4001       C  0.67123633  0.79059318  0.88738895     0.16300
C4002       C  0.66340405  0.79073713  0.91992322    -0.32700
C4003       C  0.65224008  0.77972452  0.92740211     0.20700
C4004       C  0.64885401  0.76927718  0.90216541     0.02900
C4005       C  0.65650157  0.76922293  0.86925416    -0.22500
C4006       C  0.66783237  0.77996160  0.86331906     0.12100
S4007       S  0.68591438  0.80232007  0.87698014    -0.06100
C4008       C  0.68749252  0.79248872  0.84157546    -0.09600
C4009       C  0.67708488  0.78099352  0.83723651    -0.26200
S4010       S  0.63593396  0.75642104  0.91914536    -0.03400
C4011       C  0.63520674  0.76493318  0.96209713    -0.16800
C4012       C  0.64426467  0.77731515  0.96174839    -0.14800
H4013       H  0.66623146  0.79880147  0.94033078     0.20500
H4014       H  0.65409250  0.76087583  0.85110232     0.16600
H4015       H  0.67652895  0.77354725  0.81748995     0.19100
H4016       H  0.64566853  0.78384003  0.98755524     0.12400
C4017       C  0.57854092  0.68032495  0.12195354     0.16300
C4018       C  0.57709510  0.66882799  0.13268952    -0.32700
C4019       C  0.56541120  0.65838797  0.12716882     0.20700
C4020       C  0.55559426  0.65934923  0.11156338     0.02900
C4021       C  0.55697220  0.67088954  0.10181766    -0.22500
C4022       C  0.56866632  0.68134943  0.10743274     0.12100
S4023       S  0.59220594  0.69388722  0.12251587    -0.06100
C4024       C  0.58455247  0.70111209  0.10363380    -0.09600
C4025       C  0.57202698  0.69331056  0.09751171    -0.26200
S4026       S  0.54238863  0.64551138  0.10429077    -0.03400
C4027       C  0.55012800  0.63835510  0.12302300    -0.16800
C4028       C  0.56229277  0.64637748  0.13433930    -0.14800
H4029       H  0.58482454  0.66802259  0.14377234     0.20500
H4030       H  0.54933412  0.67165243  0.08938136     0.16600
H4031       H  0.56586458  0.69611426  0.08406446     0.19100
H4032       H  0.56860670  0.64355185  0.14604581     0.12400
C4033       C  0.59076264  0.72620328  0.85861107     0.16300
C4034       C  0.59327183  0.72437604  0.81557896    -0.32700
C4035       C  0.59209847  0.73144345  0.78275053     0.20700
C4036       C  0.58827374  0.73979164  0.79186396     0.02900
C4037       C  0.58566170  0.74157884  0.83522119    -0.22500
C4038       C  0.58711800  0.73465891  0.86845749     0.12100
S4039       S  0.59328336  0.71961671  0.90293437    -0.06100
C4040       C  0.58971424  0.72851802  0.93577111    -0.09600
C4041       C  0.58635130  0.73593035  0.91302327    -0.26200
S4042       S  0.58825271  0.74798805  0.74697951    -0.03400
C4043       C  0.59367102  0.74018206  0.71639918    -0.16800
C4044       C  0.59525558  0.73169234  0.73982195    -0.14800
H4045       H  0.59655697  0.71810262  0.80824253     0.20500
H4046       H  0.58311667  0.74840646  0.84290821     0.16600
H4047       H  0.58458047  0.74268101  0.92815476     0.19100
H4048       H  0.59908789  0.72637134  0.72642331     0.12400
C4049       C  0.59399313  0.74041376  0.35975897     0.16300
C4050       C  0.58946584  0.74103796  0.31805688    -0.32700
C4051       C  0.59652186  0.74177013  0.28107356     0.20700
C4052       C  0.60750887  0.74186166  0.28585820     0.02900
C4053       C  0.61190629  0.74112879  0.32699402    -0.22500
C4054       C  0.60496095  0.74045774  0.36347223     0.12100
S4055       S  0.58728044  0.73980231  0.40950377    -0.06100
C4056       C  0.59952389  0.73972487  0.43472951    -0.09600
C4057       C  0.60812213  0.74005077  0.40582110    -0.26200
S4058       S  0.61514462  0.74332421  0.23853319    -0.03400
C4059       C  0.60349312  0.74381045  0.21093458    -0.16800
C4060       C  0.59406265  0.74276443  0.23758345    -0.14800
H4061       H  0.58095172  0.74109856  0.31463498     0.20500
H4062       H  0.62052879  0.74127202  0.33049015     0.16600
H4063       H  0.61643123  0.74009980  0.41534163     0.19100
H4064       H  0.58610685  0.74307913  0.22599822     0.12400
C4065       C  0.66677811  0.75460634  0.12915103     0.16300
C4066       C  0.67954076  0.76148187  0.13391441    -0.32700
C4067       C  0.68444493  0.76188559  0.17547034     0.20700
C4068       C  0.67706675  0.75521149  0.21034822     0.02900
C4069       C  0.66430077  0.74782388  0.20499419    -0.22500
C4070       C  0.65931234  0.74790667  0.16387467     0.12100
S4071       S  0.65907884  0.75538979  0.08452673    -0.06100
C4072       C  0.64566148  0.74671478  0.11293058    -0.09600
C4073       C  0.64708460  0.74312683  0.15434640    -0.26200
S4074       S  0.68457747  0.75860746  0.25969602    -0.03400
C4075       C  0.69760352  0.76945135  0.23313636    -0.16800
C4076       C  0.69624228  0.76993021  0.18826490    -0.14800
H4077       H  0.68530299  0.76718429  0.10745293     0.20500
H4078       H  0.65843434  0.74309467  0.23262319     0.16600
H4079       H  0.63970055  0.73833868  0.17761584     0.19100
H4080       H  0.70320292  0.77670515  0.16683554     0.12400
C4081       C  0.54560471  0.47589390  0.88420816     0.16300
C4082       C  0.53769013  0.46303605  0.88631799    -0.32700
C4083       C  0.52496281  0.45842575  0.88244077     0.20700
C4084       C  0.52040737  0.46630049  0.87614571     0.02900
C4085       C  0.52827184  0.47908502  0.87417097    -0.22500
C4086       C  0.54090827  0.48367531  0.87874108     0.12100
S4087       S  0.56129879  0.48348435  0.88987298    -0.06100
C4088       C  0.56139809  0.49721116  0.88562258    -0.09600
C4089       C  0.54988429  0.49586383  0.87994231    -0.26200
S4090       S  0.50479766  0.45913964  0.87363071    -0.03400
C4091       C  0.50419791  0.44527946  0.88188320    -0.16800
C4092       C  0.51567050  0.44629306  0.88573660    -0.14800
H4093       H  0.54127469  0.45692218  0.89157034     0.20500
H4094       H  0.52466201  0.48522605  0.87016860     0.16600
H4095       H  0.54816186  0.50345972  0.87765807     0.19100
H4096       H  0.51712151  0.43865472  0.89210769     0.12400
C4097       C  0.55698245  0.55128057  0.77167238     0.16300
C4098       C  0.55083389  0.55230126  0.73493411    -0.32700
C4099       C  0.54908738  0.56248012  0.73322049     0.20700
C4100       C  0.55289100  0.57098554  0.76728743     0.02900
C4101       C  0.55883874  0.56986630  0.80416247    -0.22500
C4102       C  0.56098018  0.55999072  0.80508697     0.12100
S4103       S  0.56118538  0.54037956  0.77830426    -0.06100
C4104       C  0.56855346  0.54787841  0.82591768    -0.09600
C4105       C  0.56767899  0.55812036  0.83606233    -0.26200
S4106       S  0.55087721  0.58318115  0.75791223    -0.03400
C4107       C  0.54529463  0.57707946  0.70668712    -0.16800
C4108       C  0.54458611  0.56588695  0.69833025    -0.14800
H4109       H  0.54806209  0.54579266  0.70799540     0.20500
H4110       H  0.56218937  0.57673652  0.83005007     0.16600
H4111       H  0.57208798  0.56412302  0.86398389     0.19100
H4112       H  0.54159192  0.56088163  0.66758687     0.12400
C4113       C  0.59265317  0.58353211  0.01845479     0.16300
C4114       C  0.58897172  0.58800806  0.05402377    -0.32700
C4115       C  0.58290128  0.59454561  0.04481796     0.20700
C4116       C  0.58089239  0.59683836  0.00209219     0.02900
C4117       C  0.58495335  0.59273404  0.96653399    -0.22500
C4118       C  0.59068555  0.58587760  0.97573141     0.12100
S4119       S  0.59785669  0.57335238  0.02266443    -0.06100
C4120       C  0.59734286  0.57220652  0.96635422    -0.09600
C4121       C  0.59345171  0.57947733  0.94578801    -0.26200
S4122       S  0.57136354  0.60278167  0.99768075    -0.03400
C4123       C  0.56993094  0.60207589  0.05392558    -0.16800
C4124       C  0.57680990  0.59772666  0.07460443    -0.14800
H4125       H  0.58993388  0.58567111  0.08736465     0.20500
H4126       H  0.58286371  0.59398197  0.93313514     0.16600
H4127       H  0.59157054  0.57913304  0.91097662     0.19100
H4128       H  0.57613733  0.59553504  0.10915549     0.12400
C4129       C  0.54413118  0.47896840  0.37773612     0.16300
C4130       C  0.53536640  0.46687337  0.36493706    -0.32700
C4131       C  0.52394871  0.46117415  0.38650127     0.20700
C4132       C  0.52143063  0.46732180  0.41897726     0.02900
C4133       C  0.53008402  0.47934479  0.43138265    -0.22500
C4134       C  0.54142768  0.48495828  0.41020320     0.12100
S4135       S  0.55867568  0.48759966  0.35686375    -0.06100
C4136       C  0.56099170  0.49927539  0.39256049    -0.09600
C4137       C  0.55097183  0.49652783  0.41865643    -0.26200
S4138       S  0.50728461  0.45905046  0.44178134    -0.03400
C4139       C  0.50453292  0.44701850  0.40745830    -0.16800
C4140       C  0.51420111  0.44942965  0.37959743    -0.14800
H4141       H  0.53738349  0.46209821  0.33964459     0.20500
H4142       H  0.52808721  0.48410676  0.45682566     0.16600
H4143       H  0.55068709  0.50269782  0.44290397     0.19100
H4144       H  0.51409638  0.44298187  0.35573572     0.12400
C4145       C  0.56685509  0.55330168  0.22607190     0.16300
C4146       C  0.56617142  0.56048358  0.19266646    -0.32700
C4147       C  0.55522947  0.56063531  0.18822954     0.20700
C4148       C  0.54510986  0.55352057  0.21439542     0.02900
C4149       C  0.54569140  0.54602542  0.24734484    -0.22500
C4150       C  0.55690472  0.54629196  0.25313524     0.12100
S4151       S  0.58007394  0.55379693  0.24105891    -0.06100
C4152       C  0.57236768  0.54480968  0.28538722    -0.09600
C4153       C  0.55998944  0.54118740  0.28714868    -0.26200
S4154       S  0.53313460  0.55611577  0.20606666    -0.03400
C4155       C  0.54217649  0.56717334  0.16843414    -0.16800
C4156       C  0.55357902  0.56841540  0.16192200    -0.14800
H4157       H  0.57412832  0.56638312  0.17294190     0.20500
H4158       H  0.53804516  0.54087033  0.26926106     0.16600
H4159       H  0.55392123  0.53609777  0.31388306     0.19100
H4160       H  0.56060413  0.57523014  0.14082864     0.12400
C4161       C  0.60013142  0.54104628  0.60413827     0.16300
C4162       C  0.60232456  0.54658957  0.64535242    -0.32700
C4163       C  0.60257610  0.53986711  0.68124325     0.20700
C4164       C  0.60084680  0.52812679  0.67682581     0.02900
C4165       C  0.59888044  0.52260745  0.63501692    -0.22500
C4166       C  0.59852748  0.52936050  0.59873585     0.12100
S4167       S  0.59868575  0.54758457  0.55760598    -0.06100
C4168       C  0.59596191  0.53453071  0.52969426    -0.09600
C4169       C  0.59625273  0.52558631  0.55552914    -0.26200
S4170       S  0.60068210  0.52138680  0.72605815    -0.03400
C4171       C  0.60282484  0.53455403  0.75217139    -0.16800
C4172       C  0.60382291  0.54359239  0.72379528    -0.14800
H4173       H  0.60344591  0.55566729  0.64945776     0.20500
H4174       H  0.59738383  0.51338770  0.63107712     0.16600
H4175       H  0.59455274  0.51673720  0.54362163     0.19100
H4176       H  0.60493201  0.55237251  0.73389743     0.12400
C4177       C  0.60085692  0.52219461  0.18034316     0.16300
C4178       C  0.59595383  0.51575736  0.14063530    -0.32700
C4179       C  0.59899230  0.52269989  0.10170869     0.20700
C4180       C  0.60674054  0.53539203  0.10263021     0.02900
C4181       C  0.61179047  0.54170425  0.14180089    -0.22500
C4182       C  0.60857313  0.53487019  0.18038634     0.12100
S4183       S  0.59716503  0.51598461  0.23196342    -0.06100
C4184       C  0.60586739  0.53071417  0.25310658    -0.09600
C4185       C  0.61154186  0.53973632  0.22161852    -0.26200
S4186       S  0.60843356  0.54251876  0.05387839    -0.03400
C4187       C  0.59859637  0.52834739  0.03126367    -0.16800
C4188       C  0.59432708  0.51852133  0.06018464    -0.14800
H4189       H  0.58961286  0.50590930  0.14033580     0.20500
H4190       H  0.61750710  0.55165520  0.14242668     0.16600
H4191       H  0.61688470  0.54953185  0.22852530     0.19100
H4192       H  0.58760817  0.50906973  0.05201283     0.12400
C4193       C  0.59240040  0.58722356  0.48494403     0.16300
C4194       C  0.58980093  0.59236725  0.52148305    -0.32700
C4195       C  0.58034328  0.59514375  0.51711008     0.20700
C4196       C  0.57423111  0.59343998  0.47751566     0.02900
C4197       C  0.57726868  0.58894953  0.44064625    -0.22500
C4198       C  0.58621448  0.58560313  0.44561192     0.12100
S4199       S  0.60118758  0.58034959  0.48611828    -0.06100
C4200       C  0.59610189  0.57500690  0.43370655    -0.09600
C4201       C  0.58844053  0.57879229  0.41613319    -0.26200
S4202       S  0.56169603  0.59513236  0.48002947    -0.03400
C4203       C  0.56443763  0.59793408  0.53528645    -0.16800
C4204       C  0.57487898  0.59801711  0.55045458    -0.14800
H4205       H  0.59413386  0.59309227  0.55291248     0.20500
H4206       H  0.57204811  0.58703211  0.41048040     0.16600
H4207       H  0.58362214  0.57552143  0.38513012     0.19100
H4208       H  0.57759651  0.59891460  0.58459283     0.12400
C4209       C  0.78684927  0.59337758  0.96874114     0.16300
C4210       C  0.79401784  0.58778270  0.96369912    -0.32700
C4211       C  0.80630143  0.59436278  0.97813704     0.20700
C4212       C  0.81112095  0.60590554  0.99741945     0.02900
C4213       C  0.80394238  0.61143852  0.00280568    -0.22500
C4214       C  0.79176875  0.60497719  0.98759974     0.12100
S4215       S  0.77197716  0.58725830  0.95120681    -0.06100
C4216       C  0.77246230  0.60055379  0.96879972    -0.09600
C4217       C  0.78359330  0.60915312  0.98760536    -0.26200
S4218       S  0.82635618  0.61279184  0.01009187    -0.03400
C4219       C  0.82642091  0.60012669  0.98845410    -0.16800
C4220       C  0.81503090  0.59092976  0.97324153    -0.14800
H4221       H  0.79028353  0.57884398  0.94807246     0.20500
H4222       H  0.80780501  0.62056944  0.01701194     0.16600
H4223       H  0.78567400  0.61809892  0.99993103     0.19100
H4224       H  0.81337788  0.58251396  0.95730759     0.12400
C4225       C  0.77417516  0.65570432  0.10563670     0.16300
C4226       C  0.77717858  0.66231321  0.14506392    -0.32700
C4227       C  0.78554687  0.67498150  0.14332541     0.20700
C4228       C  0.79099900  0.68080098  0.10430268     0.02900
C4229       C  0.78832002  0.67408901  0.06504065    -0.22500
C4230       C  0.77964720  0.66145546  0.06656018     0.12100
S4231       S  0.76283585  0.64071914  0.10011711    -0.06100
C4232       C  0.76534563  0.64221948  0.04446968    -0.09600
C4233       C  0.77472556  0.65367603  0.03127111    -0.26200
S4234       S  0.79957826  0.69649212  0.10816839    -0.03400
C4235       C  0.79572342  0.69508386  0.16269996    -0.16800
C4236       C  0.78831532  0.68315316  0.17704808    -0.14800
H4237       H  0.77261475  0.65791924  0.17531437     0.20500
H4238       H  0.79223050  0.67864460  0.03426993     0.16600
H4239       H  0.77725911  0.65638933  0.99750309     0.19100
H4240       H  0.78440735  0.68068466  0.20957939     0.12400
C4241       C  0.67833882  0.58204006  0.91882332     0.16300
C4242       C  0.66710333  0.58072970  0.90558484    -0.32700
C4243       C  0.65655029  0.56910274  0.90991172     0.20700
C4244       C  0.65709423  0.55916141  0.92673393     0.02900
C4245       C  0.66839023  0.56044412  0.93970797    -0.22500
C4246       C  0.67898888  0.57211715  0.93529037     0.12100
S4247       S  0.69206717  0.59552201  0.91727569    -0.06100
C4248       C  0.69887494  0.58777431  0.93883630    -0.09600
C4249       C  0.69080383  0.57534149  0.94660468    -0.26200
S4250       S  0.64309741  0.54588631  0.92982149    -0.03400
C4251       C  0.63650346  0.55384738  0.90792685    -0.16800
C4252       C  0.64482397  0.56611287  0.89899060    -0.14800
H4253       H  0.66659430  0.58847919  0.89272886     0.20500
H4254       H  0.66888676  0.55272025  0.95288978     0.16600
H4255       H  0.69340020  0.56907296  0.96059221     0.19100
H4256       H  0.64241240  0.57255243  0.88529186     0.12400
C4257       C  0.74714945  0.65847577  0.83646355     0.16300
C4258       C  0.75080957  0.66674651  0.80131988    -0.32700
C4259       C  0.75734371  0.67940191  0.81122469     0.20700
C4260       C  0.75976194  0.68361993  0.85422483     0.17300
C4261       C  0.75543384  0.67536024  0.88930624    -0.22500
C4262       C  0.74927364  0.66273636  0.87941831     0.12100
S4263       S  0.74177040  0.64301513  0.83138443    -0.06100
C4264       C  0.74241367  0.64235000  0.88767008    -0.09600
C4265       C  0.74625922  0.65347148  0.90891839    -0.26200
S4266       S  0.76988335  0.69904987  0.85957408    -0.03400
C4267       C  0.77090216  0.69986191  0.80333454    -0.16800
C4268       C  0.76346788  0.68876842  0.78180222    -0.14800
H4269       H  0.74956421  0.66348526  0.76774008     0.20500
H4270       H  0.75770450  0.67862628  0.92283062     0.16600
H4271       H  0.74796780  0.65492957  0.94386702     0.19100
H4272       H  0.76357902  0.68740141  0.74675112     0.12400
C4273       C  0.78678156  0.59636811  0.46520004     0.16300
C4274       C  0.79400259  0.59104797  0.47542112    -0.32700
C4275       C  0.80662060  0.59780433  0.46527406     0.20700
C4276       C  0.81172907  0.60934635  0.44616609     0.02900
C4277       C  0.80451052  0.61451276  0.43524484    -0.22500
C4278       C  0.79197338  0.60776899  0.44506162     0.12100
S4279       S  0.77140051  0.59002374  0.47590657    -0.06100
C4280       C  0.77202580  0.60279068  0.45216974    -0.09600
C4281       C  0.78358586  0.61142169  0.43718769    -0.26200
S4282       S  0.82717764  0.61647102  0.43840731    -0.03400
C4283       C  0.82694497  0.60377538  0.46062796    -0.16800
C4284       C  0.81532973  0.59443401  0.47305119    -0.14800
H4285       H  0.78999833  0.58212045  0.49097435     0.20500
H4286       H  0.80854047  0.62350493  0.42012859     0.16600
H4287       H  0.78579311  0.62005228  0.42182394     0.19100
H4288       H  0.81342650  0.58583300  0.48783236     0.12400
C4289       C  0.77913231  0.67093531  0.53673356     0.16300
C4290       C  0.78210008  0.68295096  0.54762446    -0.32700
C4291       C  0.78766918  0.68762427  0.58837009     0.20700
C4292       C  0.79056847  0.68080342  0.61646577     0.02900
C4293       C  0.78789278  0.66886706  0.60502082    -0.22500
C4294       C  0.78190488  0.66400592  0.56482308     0.12100
S4295       S  0.77053634  0.66305614  0.49236026    -0.06100
C4296       C  0.77050428  0.65021917  0.51178386    -0.09600
C4297       C  0.77699724  0.65203471  0.55046051    -0.26200
S4298       S  0.79616170  0.68766762  0.66621608    -0.03400
C4299       C  0.79422519  0.69966408  0.64936269    -0.16800
C4300       C  0.78987253  0.69850586  0.60684292    -0.14800
H4301       H  0.77948254  0.68814680  0.52641586     0.20500
H4302       H  0.78972782  0.66335118  0.62759054     0.16600
H4303       H  0.77720311  0.64478979  0.56887381     0.19100
H4304       H  0.78776734  0.70494442  0.59115823     0.12400
C4305       C  0.67785376  0.58334327  0.44468162     0.16300
C4306       C  0.66621666  0.58201602  0.43895976    -0.32700
C4307       C  0.65630796  0.57016968  0.43019909     0.20700
C4308       C  0.65783406  0.56001349  0.42774117     0.02900
C4309       C  0.66954935  0.56137814  0.43263138    -0.22500
C4310       C  0.67951984  0.57329016  0.44084811     0.12100
S4311       S  0.69095199  0.59692882  0.45649543    -0.06100
C4312       C  0.69887938  0.58909872  0.45533203    -0.09600
C4313       C  0.69163532  0.57658217  0.44626679    -0.26200
S4314       S  0.64450314  0.54640413  0.41741904    -0.03400
C4315       C  0.63689773  0.55457602  0.41523618    -0.16800
C4316       C  0.64438164  0.56712846  0.42270870    -0.14800
H4317       H  0.66493714  0.58989599  0.44122621     0.20500
H4318       H  0.67084079  0.55351233  0.43006358     0.16600
H4319       H  0.69503650  0.57022380  0.44430332     0.19100
H4320       H  0.64126621  0.57373232  0.42211055     0.12400
C4321       C  0.74665811  0.60173647  0.66843794     0.16300
C4322       C  0.75261376  0.60547848  0.70907226    -0.32700
C4323       C  0.74590134  0.59942281  0.74647740     0.20700
C4324       C  0.73387541  0.58976432  0.74369245     0.02900
C4325       C  0.72802287  0.58569194  0.70265468    -0.22500
C4326       C  0.73464697  0.59202825  0.66509069     0.12100
S4327       S  0.75266623  0.60938552  0.62072718    -0.06100
C4328       C  0.73887391  0.59953131  0.59559106    -0.09600
C4329       C  0.73016899  0.59055366  0.62283375    -0.26200
S4330       S  0.72701046  0.58457498  0.79368011    -0.03400
C4331       C  0.74045641  0.59568438  0.81825669    -0.16800
C4332       C  0.74973878  0.60275412  0.78890042    -0.14800
H4333       H  0.76186353  0.61329301  0.71165806     0.20500
H4334       H  0.71851767  0.57839029  0.70032844     0.16600
H4335       H  0.72082592  0.58398753  0.61309859     0.19100
H4336       H  0.75866954  0.61040311  0.79803510     0.12400
C4337       C  0.72660490  0.59697753  0.24392937     0.16300
C4338       C  0.72236968  0.59832506  0.20304548    -0.32700
C4339       C  0.72609486  0.59452136  0.16587092     0.20700
C4340       C  0.73342047  0.58925249  0.16914790     0.02900
C4341       C  0.73728497  0.58746438  0.21035456    -0.22500
C4342       C  0.73383398  0.59159347  0.24763100     0.12100
S4343       S  0.72480979  0.60297677  0.29159127    -0.06100
C4344       C  0.73387989  0.59821711  0.31705739    -0.09600
C4345       C  0.73787408  0.59207667  0.28997358    -0.26200
S4346       S  0.73804855  0.58658043  0.11958399    -0.03400
C4347       C  0.73014895  0.59277982  0.09439185    -0.16800
C4348       C  0.72408594  0.59643005  0.12325821    -0.14800
H4349       H  0.71702029  0.60284608  0.20011635     0.20500
H4350       H  0.74329673  0.58368017  0.21304776     0.16600
H4351       H  0.74416134  0.58903904  0.29993313     0.19100
H4352       H  0.71902648  0.60091355  0.11368256     0.12400
C4353       C  0.75160453  0.67720177  0.30170359     0.16300
C4354       C  0.74494744  0.66430244  0.30405927    -0.32700
C4355       C  0.74199493  0.65892392  0.34575412     0.20700
C4356       C  0.74494739  0.66607220  0.38344313     0.02900
C4357       C  0.75143859  0.67900632  0.38106929    -0.22500
C4358       C  0.75497736  0.68439120  0.33940235     0.12100
S4359       S  0.75817889  0.68521935  0.25497646    -0.06100
C4360       C  0.76597815  0.69836560  0.28638938    -0.09600
C4361       C  0.76325325  0.69657771  0.33076865    -0.26200
S4362       S  0.74204793  0.65786584  0.43085603    -0.03400
C4363       C  0.73726032  0.64473351  0.39970720    -0.16800
C4364       C  0.73763452  0.64671160  0.35489938    -0.14800
H4365       H  0.74304351  0.65870517  0.27480122     0.20500
H4366       H  0.75446588  0.68459944  0.41057835     0.16600
H4367       H  0.76810072  0.70351296  0.35583981     0.19100
H4368       H  0.73607046  0.63982478  0.33030763     0.12400
C4369       C  0.20686918  0.80248954  0.57004978     0.16300
C4370       C  0.19753813  0.79080683  0.55545603    -0.32700
C4371       C  0.18732012  0.78412815  0.58302548     0.20700
C4372       C  0.18659491  0.78885575  0.62333487     0.02900
C4373       C  0.19591578  0.80034731  0.63798890    -0.22500
C4374       C  0.20593699  0.80704557  0.61038932     0.12100
S4375       S  0.21979505  0.81252793  0.54132310    -0.06100
C4376       C  0.22372395  0.82291635  0.58410998    -0.09600
C4377       C  0.21549315  0.81863994  0.61854564    -0.26200
S4378       S  0.17337811  0.77993984  0.65128817    -0.03400
C4379       C  0.16852935  0.76959929  0.60840275    -0.16800
C4380       C  0.17693278  0.77292560  0.57433574    -0.14800
H4381       H  0.19807575  0.78722473  0.52372099     0.20500
H4382       H  0.19522429  0.80407464  0.66923072     0.16600
H4383       H  0.21635925  0.82385257  0.64804475     0.19100
H4384       H  0.17534703  0.76767772  0.54436691     0.12400
C4385       C  0.20089808  0.81016897  0.05157808     0.16300
C4386       C  0.18815997  0.80246252  0.05407566    -0.32700
C4387       C  0.18352889  0.78978011  0.05771055     0.20700
C4388       C  0.19115574  0.78482042  0.05701189     0.02900
C4389       C  0.20400570  0.79258697  0.05443640    -0.22500
C4390       C  0.20870764  0.80541691  0.05265804     0.12100
S4391       S  0.20811898  0.82583143  0.05098747    -0.06100
C4392       C  0.22194428  0.82623091  0.05424229    -0.09600
C4393       C  0.22088619  0.81464946  0.05435653    -0.26200
S4394       S  0.18348913  0.76909100  0.06343108    -0.03400
C4395       C  0.17005236  0.76943608  0.06908516    -0.16800
C4396       C  0.17151581  0.78106524  0.06487158    -0.14800
H4397       H  0.18212352  0.80625119  0.05499532     0.20500
H4398       H  0.21006976  0.78883843  0.05557057     0.16600
H4399       H  0.22854520  0.81307780  0.05722014     0.19100
H4400       H  0.16417739  0.78310226  0.06851765     0.12400
C4401       C  0.27226844  0.86189355  0.86106943     0.16300
C4402       C  0.27541839  0.86649641  0.81836732    -0.32700
C4403       C  0.26784703  0.85917577  0.78391671     0.20700
C4404       C  0.25776088  0.84759694  0.79144623     0.02900
C4405       C  0.25466023  0.84293587  0.83427935    -0.22500
C4406       C  0.26207590  0.85041479  0.86896690     0.12100
S4407       S  0.27954206  0.87001676  0.90718321    -0.06100
C4408       C  0.26862721  0.85798874  0.93791366    -0.09600
C4409       C  0.25998082  0.84806342  0.91316939    -0.26200
S4410       S  0.24938108  0.84047113  0.74525118    -0.03400
C4411       C  0.25945664  0.85331208  0.71584845    -0.16800
C4412       C  0.26880343  0.86253816  0.74068725    -0.14800
H4413       H  0.28316018  0.87562255  0.81243071     0.20500
H4414       H  0.24656139  0.83407498  0.84042210     0.16600
H4415       H  0.25214822  0.83995161  0.92666225     0.19100
H4416       H  0.27566337  0.87141891  0.72801024     0.12400
C4417       C  0.24760782  0.85092176  0.28701635     0.16300
C4418       C  0.24404578  0.85194947  0.32943945    -0.32700
C4419       C  0.25134881  0.85212762  0.36434380     0.20700
C4420       C  0.26158125  0.85095390  0.35777228     0.02900
C4421       C  0.26512505  0.84984317  0.31504381    -0.22500
C4422       C  0.25798678  0.85003488  0.27978090     0.12100
S4423       S  0.24042855  0.85155637  0.24064647    -0.06100
C4424       C  0.25166108  0.85095187  0.21053859    -0.09600
C4425       C  0.26037804  0.85004806  0.23569775    -0.26200
S4426       S  0.26947919  0.85200929  0.40512352    -0.03400
C4427       C  0.25905984  0.85445634  0.43334383    -0.16800
C4428       C  0.24989632  0.85415330  0.40733245    -0.14800
H4429       H  0.23615071  0.85302463  0.33492984     0.20500
H4430       H  0.27331128  0.84929558  0.30946032     0.16600
H4431       H  0.26824133  0.84984814  0.22255640     0.19100
H4432       H  0.24276857  0.85582706  0.41917581     0.12400
C4433       C  0.45284976  0.93468003  0.66435425     0.16300
C4434       C  0.46543944  0.93952225  0.67122881    -0.32700
C4435       C  0.47048235  0.93228003  0.65895861     0.20700
C4436       C  0.46326774  0.92053490  0.64169088     0.02900
C4437       C  0.45053761  0.91553317  0.63569819    -0.22500
C4438       C  0.44551734  0.92294957  0.64700704     0.12100
S4439       S  0.44556196  0.94284141  0.67155122    -0.06100
C4440       C  0.43242271  0.93040762  0.65104526    -0.09600
C4441       C  0.43364942  0.92037046  0.63966633    -0.26200
S4442       S  0.47147575  0.91371598  0.62577471    -0.03400
C4443       C  0.48474188  0.92697181  0.64166196    -0.16800
C4444       C  0.48273039  0.93597437  0.65924736    -0.14800
H4445       H  0.47118716  0.94881529  0.68360997     0.20500
H4446       H  0.44491309  0.90650558  0.62105011     0.16600
H4447       H  0.42653792  0.91205027  0.62403904     0.19100
H4448       H  0.48992305  0.94500406  0.66992153     0.12400
C4449       C  0.33887097  0.90985472  0.58622071     0.16300
C4450       C  0.32730749  0.90841612  0.57740669    -0.32700
C4451       C  0.31713025  0.89643394  0.57806672     0.20700
C4452       C  0.31838697  0.88634387  0.58755665     0.02900
C4453       C  0.32999052  0.88775581  0.59531729    -0.22500
C4454       C  0.34019190  0.89972362  0.59417706     0.12100
S4455       S  0.35217678  0.92368261  0.59049840    -0.06100
C4456       C  0.35963241  0.91572103  0.60221518    -0.09600
C4457       C  0.35216609  0.90303139  0.60257335    -0.26200
S4458       S  0.30483805  0.87265882  0.58923161    -0.03400
C4459       C  0.29743755  0.88056201  0.57570614    -0.16800
C4460       C  0.30512932  0.89315282  0.57073822    -0.14800
H4461       H  0.32626269  0.91631254  0.57108579     0.20500
H4462       H  0.33100148  0.87988900  0.60262968     0.16600
H4463       H  0.35522154  0.89663959  0.61092882     0.19100
H4464       H  0.30207508  0.89957390  0.56281787     0.12400
C4465       C  0.46683201  0.92557521  0.13737033     0.16300
C4466       C  0.45524790  0.92290713  0.15330208    -0.32700
C4467       C  0.44870759  0.92733302  0.12917574     0.20700
C4468       C  0.45351184  0.93398397  0.09095726     0.02900
C4469       C  0.46494616  0.93658634  0.07520052    -0.22500
C4470       C  0.47145822  0.93230334  0.09925928     0.12100
S4471       S  0.47655831  0.92139441  0.16129407    -0.06100
C4472       C  0.48686561  0.92891124  0.11938787    -0.09600
C4473       C  0.48281719  0.93424093  0.08897999    -0.26200
S4474       S  0.44462902  0.93887437  0.06649622    -0.03400
C4475       C  0.43418520  0.93205729  0.10815979    -0.16800
C4476       C  0.43748596  0.92614233  0.13926845    -0.14800
H4477       H  0.45157206  0.91775031  0.18325108     0.20500
H4478       H  0.46869482  0.94188140  0.04553385     0.16600
H4479       H  0.48797795  0.93937017  0.06055129     0.19100
H4480       H  0.43212928  0.92148674  0.16796545     0.12400
C4481       C  0.32014321  0.88733616  0.09975679     0.16300
C4482       C  0.33223071  0.88964593  0.09642208    -0.32700
C4483       C  0.34165721  0.90058886  0.11521638     0.20700
C4484       C  0.33913824  0.90878194  0.13679346     0.02900
C4485       C  0.32708383  0.90650609  0.13989940    -0.22500
C4486       C  0.31768811  0.89566012  0.12067369     0.12100
S4487       S  0.30741834  0.87474585  0.07843343    -0.06100
C4488       C  0.29872726  0.88085141  0.09738280    -0.09600
C4489       C  0.30544951  0.89204243  0.11912080    -0.26200
S4490       S  0.35179828  0.92157295  0.15708594    -0.03400
C4491       C  0.36067040  0.91599328  0.13561320    -0.16800
C4492       C  0.35402131  0.90468863  0.11436635    -0.14800
H4493       H  0.33421338  0.88326412  0.07951264     0.20500
H4494       H  0.32512738  0.91298785  0.15618652     0.16600
H4495       H  0.30159941  0.89733758  0.13257150     0.19100
H4496       H  0.35802891  0.89981475  0.09864552     0.12400
C4497       C  0.39001359  0.91687294  0.83996843     0.16300
C4498       C  0.39316825  0.91379528  0.88041426    -0.32700
C4499       C  0.39093880  0.91860243  0.91883902     0.20700
C4500       C  0.38534482  0.92567513  0.91678152     0.02900
C4501       C  0.38197529  0.92848437  0.87678371    -0.22500
C4502       C  0.38469599  0.92419100  0.83865284     0.12100
S4503       S  0.39348109  0.91358547  0.78915458    -0.06100
C4504       C  0.38817730  0.92262635  0.76670230    -0.09600
C4505       C  0.38363246  0.92749249  0.79701285    -0.26200
S4506       S  0.38472406  0.93201415  0.96515686    -0.03400
C4507       C  0.39246737  0.92550963  0.98886885    -0.16800
C4508       C  0.39493788  0.91831675  0.96075062    -0.14800
H4509       H  0.39784155  0.90856882  0.88168840     0.20500
H4510       H  0.37815323  0.93449486  0.87530879     0.16600
H4511       H  0.38034631  0.93373172  0.78913015     0.19100
H4512       H  0.40034535  0.91414403  0.96944856     0.12400
C4513       C  0.40968263  0.93500904  0.34087965     0.16300
C4514       C  0.41480364  0.94029423  0.38133810    -0.32700
C4515       C  0.40920045  0.93346289  0.41877827     0.20700
C4516       C  0.39911847  0.92163886  0.41646107     0.02900
C4517       C  0.39404043  0.91618800  0.37544728    -0.22500
C4518       C  0.39949273  0.92325161  0.33755723     0.12100
S4519       S  0.41446439  0.94274332  0.29303738    -0.06100
C4520       C  0.40255498  0.93019288  0.26731729    -0.09600
C4521       C  0.39536934  0.92032308  0.29474010    -0.26200
S4522       S  0.39339137  0.91536889  0.46690912    -0.03400
C4523       C  0.40450571  0.92903983  0.49043430    -0.16800
C4524       C  0.41229755  0.93771217  0.46071790    -0.14800
H4525       H  0.42251429  0.94962683  0.38362308     0.20500
H4526       H  0.38593565  0.90711168  0.37328499     0.16600
H4527       H  0.38716792  0.91193988  0.28456391     0.19100
H4528       H  0.41963736  0.94688307  0.46933303     0.12400
C4529       C  0.52013061  0.06763516  0.88478913     0.16300
C4530       C  0.53219977  0.07140838  0.87097134    -0.32700
C4531       C  0.53770697  0.06477337  0.88667037     0.20700
C4532       C  0.53134870  0.05481640  0.91443649     0.02900
C4533       C  0.51937115  0.05101954  0.92775975    -0.22500
C4534       C  0.51398412  0.05767860  0.91262894     0.12100
S4535       S  0.51179362  0.07457494  0.87150717    -0.06100
C4536       C  0.50008196  0.06400750  0.90446419    -0.09600
C4537       C  0.50259670  0.05557052  0.92387452    -0.26200
S4538       S  0.53947802  0.04824977  0.93209605    -0.03400
C4539       C  0.55180617  0.05898802  0.90216450    -0.16800
C4540       C  0.54953980  0.06718302  0.87908059    -0.14800
H4541       H  0.53714103  0.07927879  0.84969720     0.20500
H4542       H  0.51453428  0.04332987  0.94990800     0.16600
H4543       H  0.49643402  0.04830242  0.94575904     0.19100
H4544       H  0.55626672  0.07471939  0.85941579     0.12400
C4545       C  0.43875642  0.98818751  0.76943123     0.16300
C4546       C  0.44831080  0.99860007  0.79084244    -0.32700
C4547       C  0.44499714  0.00511956  0.82017816     0.20700
C4548       C  0.43273938  0.00118674  0.82821817     0.02900
C4549       C  0.42331076  0.99068683  0.80808584    -0.22500
C4550       C  0.42659592  0.98443803  0.77828502     0.12100
S4551       S  0.44050617  0.97979128  0.72842628    -0.06100
C4552       C  0.42471091  0.97155864  0.72285857    -0.09600
C4553       C  0.41858791  0.97490023  0.75233935    -0.26200
S4554       S  0.43027867  0.01067545  0.86060229    -0.03400
C4555       C  0.44594215  0.02026848  0.86396969    -0.16800
C4556       C  0.45273214  0.01611139  0.84139296    -0.14800
H4557       H  0.45784217  0.00180306  0.78341801     0.20500
H4558       H  0.41376847  0.98787110  0.81369315     0.16600
H4559       H  0.40871249  0.97096281  0.75321799     0.19100
H4560       H  0.46263977  0.02115707  0.83857470     0.12400
C4561       C  0.41141573  0.00926363  0.99707990     0.16300
C4562       C  0.40487022  0.99637031  0.99373443    -0.32700
C4563       C  0.40270204  0.98959002  0.03240314     0.20700
C4564       C  0.40624809  0.99539334  0.07293437     0.02900
C4565       C  0.41277987  0.00831331  0.07630040    -0.22500
C4566       C  0.41561198  0.01510146  0.03728917     0.12100
S4567       S  0.41689966  0.01887849  0.95328444    -0.06100
C4568       C  0.42565279  0.03082035  0.98886113    -0.09600
C4569       C  0.42388492  0.02749593  0.03274883    -0.26200
S4570       S  0.40392819  0.98564290  0.11534078    -0.03400
C4571       C  0.39867122  0.97370069  0.07800259    -0.16800
C4572       C  0.39847496  0.97716415  0.03505450    -0.14800
H4573       H  0.40242347  0.99184534  0.96200247     0.20500
H4574       H  0.41633375  0.01284406  0.10759805     0.16600
H4575       H  0.42939787  0.03347171  0.05937885     0.19100
H4576       H  0.39646004  0.97115500  0.00690658     0.12400
C4577       C  0.51528360  0.06290359  0.43306657     0.16300
C4578       C  0.52376858  0.05955096  0.44662603    -0.32700
C4579       C  0.53482283  0.06441648  0.42377347     0.20700
C4580       C  0.53752334  0.07246870  0.38911972     0.02900
C4581       C  0.52900186  0.07597836  0.37568665    -0.22500
C4582       C  0.51774474  0.07092646  0.39841249     0.12100
S4583       S  0.50115967  0.05724234  0.45561811    -0.06100
C4584       C  0.49821912  0.06565667  0.41816503    -0.09600
C4585       C  0.50792477  0.07263338  0.38975718    -0.26200
S4586       S  0.55146823  0.07685423  0.36511061    -0.03400
C4587       C  0.55341462  0.06754300  0.40194273    -0.16800
C4588       C  0.54381615  0.06161953  0.43126018    -0.14800
H4589       H  0.52170446  0.05315122  0.47336089     0.20500
H4590       H  0.53094231  0.08213688  0.34828085     0.16600
H4591       H  0.50768051  0.07831772  0.36364315     0.19100
H4592       H  0.54329848  0.05531380  0.45643224     0.12400
C4593       C  0.44403679  0.99195283  0.23832761     0.16300
C4594       C  0.44953647  0.99899435  0.27630932    -0.32700
C4595       C  0.45077451  0.01074473  0.27897360     0.20700
C4596       C  0.44686578  0.01528639  0.24504050     0.02900
C4597       C  0.44174305  0.00843617  0.20678736    -0.22500
C4598       C  0.44033920  0.99669329  0.20444893     0.12100
S4599       S  0.43979125  0.97677946  0.23126293    -0.06100
C4600       C  0.43304015  0.97699467  0.18237240    -0.09600
C4601       C  0.43415968  0.98821192  0.17226347    -0.26200
S4602       S  0.44753478  0.02887255  0.25622867    -0.03400
C4603       C  0.45316411  0.02855722  0.30727048    -0.16800
C4604       C  0.45463882  0.01849509  0.31477765    -0.14800
H4605       H  0.45209313  0.99522392  0.30351559     0.20500
H4606       H  0.43833466  0.01183061  0.18095384     0.16600
H4607       H  0.42969557  0.98974729  0.14460988     0.19100
H4608       H  0.45744039  0.01648992  0.34579383     0.12400
C4609       C  0.45699278  0.05956133  0.62493106     0.16300
C4610       C  0.45241014  0.05510856  0.66658102    -0.32700
C4611       C  0.45892130  0.06238233  0.70258251     0.20700
C4612       C  0.46950380  0.07373888  0.69780164     0.02900
C4613       C  0.47411746  0.07828253  0.65566979    -0.22500
C4614       C  0.46762014  0.07086269  0.61926406     0.12100
S4615       S  0.45056373  0.05158371  0.57798397    -0.06100
C4616       C  0.46237964  0.06340230  0.54954851    -0.09600
C4617       C  0.47074417  0.07320141  0.57558014    -0.26200
S4618       S  0.47591719  0.08095395  0.74683514    -0.03400
C4619       C  0.46417324  0.06843852  0.77339591    -0.16800
C4620       C  0.45588711  0.05930697  0.74537504    -0.14800
H4621       H  0.44418114  0.04620919  0.67079410     0.20500
H4622       H  0.48245440  0.08708073  0.65149422     0.16600
H4623       H  0.47882469  0.08132664  0.56344094     0.19100
H4624       H  0.44795503  0.05075984  0.75579504     0.12400
C4625       C  0.46995292  0.08147756  0.12149454     0.16300
C4626       C  0.46449719  0.08274125  0.15968056    -0.32700
C4627       C  0.46919747  0.08170246  0.20017712     0.20700
C4628       C  0.47921397  0.07998703  0.20256734     0.02900
C4629       C  0.48475355  0.07885311  0.16435392    -0.22500
C4630       C  0.47975564  0.07941694  0.12384668     0.12100
S4631       S  0.46437247  0.08055103  0.06972913    -0.06100
C4632       C  0.47515891  0.07709557  0.05110703    -0.09600
C4633       C  0.48277512  0.07686839  0.08343485    -0.26200
S4634       S  0.48280770  0.07780118  0.25455213    -0.03400
C4635       C  0.47051736  0.07888563  0.27322024    -0.16800
C4636       C  0.46411227  0.08098357  0.24062452    -0.14800
H4637       H  0.45647300  0.08375090  0.15788658     0.20500
H4638       H  0.49217867  0.07689990  0.16616431     0.16600
H4639       H  0.48947762  0.07403162  0.07815236     0.19100
H4640       H  0.45567646  0.08108827  0.24589095     0.12400
C4641       C  0.40378856  0.98445558  0.49711189     0.16300
C4642       C  0.40755031  0.99158184  0.45897305    -0.32700
C4643       C  0.41118700  0.00409154  0.46268021     0.20700
C4644       C  0.41060083  0.00922766  0.50220798     0.02900
C4645       C  0.40639921  0.00196475  0.54022708    -0.22500
C4646       C  0.40328475  0.98953928  0.53692952     0.12100
S4647       S  0.40143370  0.96986269  0.50058362    -0.06100
C4648       C  0.39988459  0.97057606  0.55630191    -0.09600
C4649       C  0.40097148  0.98154323  0.57113946    -0.26200
S4650       S  0.41751593  0.02499260  0.50123704    -0.03400
C4651       C  0.42158336  0.02465790  0.44753758    -0.16800
C4652       C  0.41730608  0.01284730  0.43129568    -0.14800
H4653       H  0.40857672  0.98778315  0.42843867     0.20500
H4654       H  0.40653020  0.00606000  0.57165775     0.16600
H4655       H  0.40107599  0.98390501  0.60538169     0.19100
H4656       H  0.41991415  0.01088180  0.39981210     0.12400
C4657       C  0.39063989  0.20886380  0.95900047     0.16300
C4658       C  0.38490064  0.19598928  0.95988555    -0.32700
C4659       C  0.39231846  0.19072716  0.96482757     0.20700
C4660       C  0.40496578  0.19795334  0.96884916     0.02900
C4661       C  0.41074536  0.21094444  0.96887827    -0.22500
C4662       C  0.40326365  0.21624893  0.96381417     0.12100
S4663       S  0.38311863  0.21672407  0.94998637    -0.06100
C4664       C  0.39701853  0.23025867  0.95293185    -0.09600
C4665       C  0.40700414  0.22865422  0.96103951    -0.26200
S4666       S  0.41226253  0.18954567  0.97141983    -0.03400
C4667       C  0.39808206  0.17620330  0.96740903    -0.16800
C4668       C  0.38833789  0.17834591  0.96440247    -0.14800
H4669       H  0.37504529  0.19028521  0.95578601     0.20500
H4670       H  0.42063275  0.21664239  0.97168000     0.16600
H4671       H  0.41646186  0.23607613  0.96298978     0.19100
H4672       H  0.37881421  0.17119965  0.96039467     0.12400
C4673       C  0.41990949  0.10176767  0.92518532     0.16300
C4674       C  0.42122494  0.09177050  0.91287944    -0.32700
C4675       C  0.43249252  0.09252102  0.92140637     0.20700
C4676       C  0.44208496  0.10272458  0.94179520     0.02900
C4677       C  0.44076805  0.11280913  0.95426646    -0.22500
C4678       C  0.42945249  0.11210793  0.94521056     0.12100
S4679       S  0.40683821  0.10237608  0.91764365    -0.06100
C4680       C  0.41418224  0.11682030  0.94126273    -0.09600
C4681       C  0.42622481  0.12086064  0.95441993    -0.26200
S4682       S  0.45499082  0.10158093  0.94906849    -0.03400
C4683       C  0.44733188  0.08728083  0.92384956    -0.16800
C4684       C  0.43543035  0.08371931  0.91108470    -0.14800
H4685       H  0.41375691  0.08372376  0.89713816     0.20500
H4686       H  0.44822167  0.12083702  0.97012241     0.16600
H4687       H  0.43217438  0.12957625  0.97063582     0.19100
H4688       H  0.42918500  0.07506908  0.89498961     0.12400
C4689       C  0.39297434  0.19333268  0.47411649     0.16300
C4690       C  0.38769075  0.20077233  0.47831708    -0.32700
C4691       C  0.39536161  0.21353559  0.47373057     0.20700
C4692       C  0.40782324  0.21873594  0.46588497     0.02900
C4693       C  0.41320621  0.21128622  0.46289218    -0.22500
C4694       C  0.40547047  0.19843506  0.46699477     0.12100
S4695       S  0.38486685  0.17762754  0.47399985    -0.06100
C4696       C  0.39839538  0.17775990  0.46483634    -0.09600
C4697       C  0.40869786  0.18949075  0.46226529    -0.26200
S4698       S  0.41527338  0.23436766  0.45777434    -0.03400
C4699       C  0.40142338  0.23383820  0.46481022    -0.16800
C4700       C  0.39168306  0.22211935  0.47364784    -0.14800
H4701       H  0.37790200  0.19672938  0.48331590     0.20500
H4702       H  0.42290746  0.21529041  0.45616749     0.16600
H4703       H  0.41788412  0.19135199  0.45513639     0.19100
H4704       H  0.38226203  0.21989457  0.47805655     0.12400
C4705       C  0.43413602  0.09639676  0.45835419     0.16300
C4706       C  0.43007192  0.10297855  0.48405064    -0.32700
C4707       C  0.42395342  0.10829670  0.46268843     0.20700
C4708       C  0.42217049  0.10726561  0.41765715     0.02900
C4709       C  0.42591051  0.10040138  0.39225035    -0.22500
C4710       C  0.43183577  0.09492912  0.41363685     0.12100
S4711       S  0.44219770  0.08968782  0.47736675    -0.06100
C4712       C  0.44211162  0.08449887  0.42477853    -0.09600
C4713       C  0.43619005  0.08795508  0.39440110    -0.26200
S4714       S  0.41525916  0.11497265  0.39741545    -0.03400
C4715       C  0.41438443  0.11938502  0.45019871    -0.16800
C4716       C  0.41927706  0.11504978  0.48168651    -0.14800
H4717       H  0.43170376  0.10400034  0.51909639     0.20500
H4718       H  0.42435729  0.09945374  0.35715995     0.16600
H4719       H  0.43534973  0.08570087  0.35979323     0.19100
H4720       H  0.41954977  0.11689410  0.51650499     0.12400
C4721       C  0.41407283  0.14985639  0.67395432     0.16300
C4722       C  0.41729351  0.14843100  0.71691719    -0.32700
C4723       C  0.41174102  0.15109281  0.75201485     0.20700
C4724       C  0.40368371  0.15535176  0.74432756     0.02900
C4725       C  0.40065892  0.15697534  0.70171512    -0.22500
C4726       C  0.40585129  0.15393703  0.66691828     0.12100
S4727       S  0.41833138  0.14551326  0.62684111    -0.06100
C4728       C  0.40868854  0.14896629  0.59798876    -0.09600
C4729       C  0.40274134  0.15342927  0.62364843    -0.26200
S4730       S  0.39704266  0.15709483  0.79007018    -0.03400
C4731       C  0.40492551  0.15179290  0.82059414    -0.16800
C4732       C  0.41258317  0.14910694  0.79608971    -0.14800
H4733       H  0.42334251  0.14480612  0.72268989     0.20500
H4734       H  0.39400480  0.15985644  0.69593750     0.16600
H4735       H  0.39581026  0.15537175  0.61155738     0.19100
H4736       H  0.41789466  0.14527170  0.80938950     0.12400
C4737       C  0.40189025  0.13565078  0.17265462     0.16300
C4738       C  0.39841203  0.13083051  0.21484557    -0.32700
C4739       C  0.40115662  0.13914035  0.24949850     0.20700
C4740       C  0.40746650  0.15177130  0.24285500     0.02900
C4741       C  0.41094689  0.15662928  0.20032549    -0.22500
C4742       C  0.40785950  0.14824315  0.16523787     0.12100
S4743       S  0.39858804  0.12688414  0.12661355    -0.06100
C4744       C  0.40501782  0.14022054  0.09618435    -0.09600
C4745       C  0.40966109  0.15095684  0.12108824    -0.26200
S4746       S  0.40975871  0.16020291  0.28986801    -0.03400
C4747       C  0.40173125  0.14651046  0.31798236    -0.16800
C4748       C  0.39775510  0.13608280  0.29227955    -0.14800
H4749       H  0.39345477  0.12097361  0.22027192     0.20500
H4750       H  0.41557045  0.16646609  0.19474042     0.16600
H4751       H  0.41373466  0.16015010  0.10766578     0.19100
H4752       H  0.39248558  0.12672511  0.30426064     0.12400
C4753       C  0.14010652  0.88242265  0.81984056     0.16300
C4754       C  0.12731866  0.87467712  0.82528609    -0.32700
C4755       C  0.12250947  0.86181194  0.82400399     0.20700
C4756       C  0.13018493  0.85699823  0.81861076     0.02900
C4757       C  0.14282739  0.86467139  0.81274791    -0.22500
C4758       C  0.14754652  0.87740709  0.81297961     0.12100
S4759       S  0.14794574  0.89827978  0.81883845    -0.06100
C4760       C  0.16120225  0.89795227  0.80770650    -0.09600
C4761       C  0.15952198  0.88619580  0.80562524    -0.26200
S4762       S  0.12288451  0.84134225  0.81754071    -0.03400
C4763       C  0.10912717  0.84100755  0.82300280    -0.16800
C4764       C  0.11030945  0.85261900  0.82627301    -0.14800
H4765       H  0.12137605  0.87849360  0.82953943     0.20500
H4766       H  0.14873235  0.86084977  0.80738910     0.16600
H4767       H  0.16673051  0.88417297  0.79837787     0.19100
H4768       H  0.10268524  0.85424209  0.82903027     0.12400
C4769       C  0.21445987  0.89044330  0.90128002     0.16300
C4770       C  0.21477613  0.88356784  0.93692756    -0.32700
C4771       C  0.22560067  0.88316337  0.94357504     0.20700
C4772       C  0.23551346  0.88908272  0.91541420     0.02900
C4773       C  0.23521803  0.89596095  0.88010637    -0.22500
C4774       C  0.22456458  0.89659770  0.87410646     0.12100
S4775       S  0.20260684  0.89290398  0.88889486    -0.06100
C4776       C  0.21164289  0.90262666  0.84792551    -0.09600
C4777       C  0.22300682  0.90359923  0.84364981    -0.26200
S4778       S  0.24785425  0.88769061  0.92889848    -0.03400
C4779       C  0.23974810  0.87925277  0.97366759    -0.16800
C4780       C  0.22802492  0.87754855  0.97746254    -0.14800
H4781       H  0.20707442  0.87901167  0.95908381     0.20500
H4782       H  0.24308350  0.90087235  0.85885259     0.16600
H4783       H  0.22998698  0.90956723  0.82053838     0.19100
H4784       H  0.22172802  0.87266301  0.00391576     0.12400
C4785       C  0.24272858  0.92471153  0.65419189     0.16300
C4786       C  0.24535347  0.91875444  0.62059276    -0.32700
C4787       C  0.25253195  0.91347948  0.63127895     0.20700
C4788       C  0.25725826  0.91444655  0.67313692     0.02900
C4789       C  0.25504643  0.92084614  0.70624937    -0.22500
C4790       C  0.24752249  0.92576490  0.69598541     0.12100
S4791       S  0.23190001  0.92903406  0.65056258    -0.06100
C4792       C  0.23376173  0.93222369  0.70593386    -0.09600
C4793       C  0.24255927  0.93026688  0.72556712    -0.26200
S4794       S  0.26384032  0.90558052  0.68153570    -0.03400
C4795       C  0.26016103  0.90049850  0.62823096    -0.16800
C4796       C  0.25429245  0.90559033  0.60532287    -0.14800
H4797       H  0.24112591  0.91737476  0.58853684     0.20500
H4798       H  0.25819944  0.92109028  0.73948991     0.16600
H4799       H  0.24406464  0.93057987  0.76065075     0.19100
H4800       H  0.25040521  0.90269261  0.57276786     0.12400
C4801       C  0.14193580  0.88046508  0.31564467     0.16300
C4802       C  0.12925699  0.87303467  0.32361914    -0.32700
C4803       C  0.12381197  0.86026414  0.31623235     0.20700
C4804       C  0.13073396  0.85523296  0.30139982     0.02900
C4805       C  0.14336339  0.86257061  0.29447794    -0.22500
C4806       C  0.14877096  0.87523239  0.30202249     0.12100
S4807       S  0.15031235  0.89622394  0.32003025    -0.06100
C4808       C  0.16310317  0.89558668  0.30411631    -0.09600
C4809       C  0.16088029  0.88379803  0.29597923    -0.26200
S4810       S  0.12255229  0.83983944  0.29122172    -0.03400
C4811       C  0.10956690  0.83995424  0.30767971    -0.16800
C4812       C  0.11157401  0.85143852  0.32057285    -0.14800
H4813       H  0.12385226  0.87704440  0.33431195     0.20500
H4814       H  0.14872446  0.85859304  0.28288774     0.16600
H4815       H  0.16774527  0.88162987  0.28506910     0.19100
H4816       H  0.10445293  0.85328600  0.33092972     0.12400
C4817       C  0.21489964  0.89720461  0.45674919     0.16300
C4818       C  0.21840010  0.89395943  0.49571757    -0.32700
C4819       C  0.22012732  0.88379634  0.49445089     0.20700
C4820       C  0.21825798  0.87699366  0.45638044     0.02900
C4821       C  0.21446426  0.88006419  0.41764357    -0.22500
C4822       C  0.21298356  0.89039177  0.41867590     0.12100
S4823       S  0.21363607  0.91000326  0.45030889    -0.06100
C4824       C  0.21067810  0.90623208  0.39556199    -0.09600
C4825       C  0.21046416  0.89548432  0.38351998    -0.26200
S4826       S  0.22258802  0.86615258  0.46013511    -0.03400
C4827       C  0.22693068  0.87087414  0.51344237    -0.16800
C4828       C  0.22498739  0.88022715  0.52735685    -0.14800
H4829       H  0.22030143  0.89948328  0.52517117     0.20500
H4830       H  0.21336412  0.87504028  0.38745861     0.16600
H4831       H  0.20903035  0.89185509  0.35041625     0.19100
H4832       H  0.22809711  0.88497056  0.55856952     0.12400
C4833       C  0.18092038  0.92741993  0.57681435     0.16300
C4834       C  0.17752543  0.92349433  0.53317051    -0.32700
C4835       C  0.18431560  0.93180171  0.49965066     0.20700
C4836       C  0.19393845  0.94353578  0.50934725     0.02900
C4837       C  0.19709324  0.94756363  0.55285210    -0.22500
C4838       C  0.19044522  0.93922118  0.58626504     0.12100
S4839       S  0.17513152  0.91820036  0.62189681    -0.06100
C4840       C  0.18556276  0.93040727  0.65370403    -0.09600
C4841       C  0.19308643  0.94100163  0.63030162    -0.26200
S4842       S  0.20209469  0.95168701  0.46480137    -0.03400
C4843       C  0.19247358  0.93921338  0.43241208    -0.16800
C4844       C  0.18329673  0.92932983  0.45531085    -0.14800
H4845       H  0.17033699  0.91416781  0.52567209     0.20500
H4846       H  0.20483528  0.95660036  0.56033632     0.16600
H4847       H  0.20073372  0.94924374  0.64436407     0.19100
H4848       H  0.17687762  0.92049501  0.44075923     0.12400
C4849       C  0.19670410  0.92566267  0.07984216     0.16300
C4850       C  0.19876239  0.92266550  0.03766739    -0.32700
C4851       C  0.19860536  0.92975011  0.00260363     0.20700
C4852       C  0.19633806  0.93934017  0.00895792     0.02900
C4853       C  0.19448356  0.94249676  0.05153618    -0.22500
C4854       C  0.19477408  0.93545443  0.08693211     0.12100
S4855       S  0.19647089  0.91801118  0.12606527    -0.06100
C4856       C  0.19396320  0.92817192  0.15615951    -0.09600
C4857       C  0.19330431  0.93703696  0.13097186    -0.26200
S4858       S  0.19612495  0.94646349  0.96121415    -0.03400
C4859       C  0.19941555  0.93657670  0.93285838    -0.16800
C4860       C  0.20051166  0.92823208  0.95937011    -0.14800
H4861       H  0.20041432  0.91509636  0.03239483     0.20500
H4862       H  0.19286485  0.95007932  0.05681409     0.16600
H4863       H  0.19186875  0.94422208  0.14407922     0.19100
H4864       H  0.20251138  0.92130185  0.94746652     0.12400
C4865       C  0.24939078  0.92133536  0.23001576     0.16300
C4866       C  0.25484745  0.91401235  0.22758777    -0.32700
C4867       C  0.25630758  0.91020687  0.18588737     0.20700
C4868       C  0.25344823  0.91438664  0.14813330     0.02900
C4869       C  0.24823431  0.92191849  0.15052178    -0.22500
C4870       C  0.24582872  0.92486312  0.19228958     0.12100
S4871       S  0.24436177  0.92451057  0.27743414    -0.06100
C4872       C  0.23657685  0.92974047  0.24606364    -0.09600
C4873       C  0.23845475  0.92969434  0.20132217    -0.26200
S4874       S  0.25487417  0.90794962  0.10090332    -0.03400
C4875       C  0.25855073  0.89892385  0.13242124    -0.16800
C4876       C  0.25913970  0.90120567  0.17707460    -0.14800
H4877       H  0.25682072  0.91051619  0.25700936     0.20500
H4878       H  0.24517796  0.92443503  0.12118140     0.16600
H4879       H  0.23370658  0.93192303  0.17662303     0.19100
H4880       H  0.26081713  0.89605824  0.20178851     0.12400
C4881       C  0.26059678  0.14337262  0.72964780     0.16300
C4882       C  0.25694705  0.13127536  0.71563449    -0.32700
C4883       C  0.26185657  0.12490631  0.73808106     0.20700
C4884       C  0.26986782  0.13036506  0.77311091     0.02900
C4885       C  0.27336465  0.14228415  0.78727715    -0.22500
C4886       C  0.26864207  0.14864753  0.76463886     0.12100
S4887       S  0.25630863  0.15306693  0.70615863    -0.06100
C4888       C  0.26565839  0.16431366  0.74358823    -0.09600
C4889       C  0.27150532  0.16051248  0.77281405    -0.26200
S4890       S  0.27520131  0.12160224  0.79558248    -0.03400
C4891       C  0.26665956  0.11026501  0.75752624    -0.16800
C4892       C  0.25991745  0.11325334  0.72896377    -0.14800
H4893       H  0.25076039  0.12711612  0.68804810     0.20500
H4894       H  0.27972850  0.14653211  0.81438179     0.16600
H4895       H  0.27773562  0.16623322  0.79856185     0.19100
H4896       H  0.25411542  0.10735211  0.70271375     0.12400
C4897       C  0.33030731  0.11381810  0.65592797     0.16300
C4898       C  0.34226163  0.11737240  0.64320566    -0.32700
C4899       C  0.34666235  0.12417301  0.60467266     0.20700
C4900       C  0.33968443  0.12770125  0.58021392     0.02900
C4901       C  0.32773624  0.12440643  0.59370164    -0.22500
C4902       C  0.32314544  0.11721750  0.63186517     0.12100
S4903       S  0.32291503  0.10404323  0.69805057    -0.06100
C4904       C  0.30992874  0.10438523  0.68352356    -0.09600
C4905       C  0.31134698  0.11186878  0.64797812    -0.26200
S4906       S  0.34642561  0.13475274  0.53165876    -0.03400
C4907       C  0.35846161  0.13246021  0.54436564    -0.16800
C4908       C  0.35739996  0.12697071  0.58458884    -0.14800
H4909       H  0.34765738  0.11432762  0.66122532     0.20500
H4910       H  0.32204279  0.12674273  0.57407197     0.16600
H4911       H  0.30399030  0.11269110  0.63311543     0.19100
H4912       H  0.36380041  0.12434709  0.59712553     0.12400
C4913       C  0.23439957  0.99306551  0.75825591     0.16300
C4914       C  0.24406018  0.00457279  0.74479715    -0.32700
C4915       C  0.24231598  0.01474373  0.74732635     0.20700
C4916       C  0.23145833  0.01354899  0.76293871     0.02900
C4917       C  0.22164856  0.00195349  0.77531565    -0.22500
C4918       C  0.22335552  0.99173634  0.77239549     0.12100
S4919       S  0.23499019  0.97977626  0.75969386    -0.06100
C4920       C  0.22006861  0.97219641  0.77825882    -0.09600
C4921       C  0.21500339  0.97970901  0.78328301    -0.26200
S4922       S  0.23156030  0.02721916  0.76636257    -0.03400
C4923       C  0.24630959  0.03459446  0.74578598    -0.16800
C4924       C  0.25076887  0.02672681  0.73680953    -0.14800
H4925       H  0.25265426  0.00559134  0.73346374     0.20500
H4926       H  0.21312488  0.00096972  0.78729052     0.16600
H4927       H  0.20580711  0.97658203  0.79511003     0.19100
H4928       H  0.25988225  0.02968360  0.72444817     0.12400
C4929       C  0.32043721  0.07466956  0.84181092     0.16300
C4930       C  0.32890755  0.07840205  0.87648203    -0.32700
C4931       C  0.34112884  0.08740977  0.86772464     0.20700
C4932       C  0.34487894  0.09207412  0.82588452     0.02900
C4933       C  0.33658811  0.08769682  0.79064971    -0.22500
C4934       C  0.32426952  0.07911351  0.79981401     0.12100
S4935       S  0.30484212  0.06697659  0.84839723    -0.06100
C4936       C  0.30350943  0.06994137  0.79427422    -0.09600
C4937       C  0.31458386  0.07605778  0.77221819    -0.26200
S4938       S  0.35929938  0.10471320  0.82361374    -0.03400
C4939       C  0.36023255  0.10380262  0.87969125    -0.16800
C4940       C  0.35004344  0.09390858  0.89855132    -0.14800
H4941       H  0.32586724  0.07542965  0.90968727     0.20500
H4942       H  0.33934229  0.09176648  0.75843772     0.16600
H4943       H  0.31557494  0.07974011  0.73947681     0.19100
H4944       H  0.34871940  0.09233738  0.93351000     0.12400
C4945       C  0.25861025  0.12454552  0.22269747     0.16300
C4946       C  0.25364310  0.13230210  0.22656725    -0.32700
C4947       C  0.26157125  0.14499041  0.22014089     0.20700
C4948       C  0.27381071  0.14966509  0.20937921     0.02900
C4949       C  0.27871174  0.14191461  0.20489368    -0.22500
C4950       C  0.27087716  0.12930950  0.21224227     0.12100
S4951       S  0.25090429  0.10908292  0.23333406    -0.06100
C4952       C  0.26443355  0.10913023  0.22443445    -0.09600
C4953       C  0.27424072  0.12052228  0.21289440    -0.26200
S4954       S  0.28214621  0.16529766  0.20541946    -0.03400
C4955       C  0.26908298  0.16567335  0.21902713    -0.16800
C4956       C  0.25877388  0.15416243  0.22558053    -0.14800
H4957       H  0.24414077  0.12866832  0.23573658     0.20500
H4958       H  0.28834354  0.14561635  0.19754300     0.16600
H4959       H  0.28351161  0.12240997  0.20730403     0.19100
H4960       H  0.24986159  0.15262125  0.23538021     0.12400
C4961       C  0.34395393  0.11775485  0.10382881     0.16300
C4962       C  0.33771429  0.11427035  0.14388078    -0.32700
C4963       C  0.32484779  0.10805893  0.14260827     0.20700
C4964       C  0.31847286  0.10537833  0.10317905     0.02900
C4965       C  0.32472405  0.10912326  0.06319391    -0.22500
C4966       C  0.33759626  0.11537433  0.06445739     0.12100
S4967       S  0.35945744  0.12433352  0.09824381    -0.06100
C4968       C  0.35738284  0.12396649  0.04227661    -0.09600
C4969       C  0.34528811  0.11911577  0.02895559    -0.26200
S4970       S  0.30289043  0.09684388  0.10831599    -0.03400
C4971       C  0.30498798  0.09710762  0.16418252    -0.16800
C4972       C  0.31713290  0.10347940  0.17787885    -0.14800
H4973       H  0.34266292  0.11602413  0.17461349     0.20500
H4974       H  0.31976248  0.10695324  0.03236222     0.16600
H4975       H  0.34223079  0.11772806  0.99511335     0.19100
H4976       H  0.32014975  0.10424618  0.21162415     0.12400
C4977       C  0.23191718  0.01285406  0.28164252     0.16300
C4978       C  0.22185661  0.00083892  0.28615070    -0.32700
C4979       C  0.22426741  0.99106831  0.28724467     0.20700
C4980       C  0.23615967  0.99320523  0.28455705     0.02900
C4981       C  0.24618320  0.00518215  0.28086464    -0.22500
C4982       C  0.24377718  0.01489668  0.27932038     0.12100
S4983       S  0.23102433  0.02594699  0.27629345    -0.06100
C4984       C  0.24679997  0.03418570  0.27092520    -0.09600
C4985       C  0.25231977  0.02707490  0.27369281    -0.26200
S4986       S  0.23724774  0.98022905  0.28561602    -0.03400
C4987       C  0.22148545  0.97170716  0.28962119    -0.16800
C4988       C  0.21577798  0.97870878  0.29029069    -0.14800
H4989       H  0.21255714  0.99915810  0.28778024     0.20500
H4990       H  0.25546659  0.00684496  0.27848309     0.16600
H4991       H  0.26207228  0.03057430  0.27002835     0.19100
H4992       H  0.20596850  0.97496737  0.29319489     0.12400
C4993       C  0.25515362  0.07394825  0.96241966     0.16300
C4994       C  0.25204371  0.07596518  0.00472072    -0.32700
C4995       C  0.25458951  0.07048126  0.04031259     0.20700
C4996       C  0.25977405  0.06315989  0.03367730     0.02900
C4997       C  0.26295555  0.06124344  0.99171721    -0.22500
C4998       C  0.26066252  0.06690004  0.95648838     0.12100
S4999       S  0.25334740  0.08011265  0.91486059    -0.06100
C5000       C  0.26043470  0.07340606  0.88737596    -0.09600
C5001       C  0.26381313  0.06666466  0.91374312    -0.26200
S5002       S  0.26246065  0.05751435  0.08029433    -0.03400
C5003       C  0.25680431  0.06525367  0.10984914    -0.16800
C5004       C  0.25288657  0.07177189  0.08426326    -0.14800
H5005       H  0.24804980  0.08173615  0.00972792     0.20500
H5006       H  0.26729996  0.05578129  0.98684956     0.16600
H5007       H  0.26860804  0.06206812  0.90230184     0.19100
H5008       H  0.24940233  0.07745199  0.09709510     0.12400
C5009       C  0.26375335  0.08348604  0.45945976     0.16300
C5010       C  0.26855411  0.08745317  0.50141295    -0.32700
C5011       C  0.26229197  0.07971157  0.53635410     0.20700
C5012       C  0.25154012  0.06852104  0.53032894     0.02900
C5013       C  0.24675533  0.06443209  0.48783938    -0.22500
C5014       C  0.25320597  0.07217050  0.45241850     0.12100
S5015       S  0.27050723  0.09157440  0.41346978    -0.06100
C5016       C  0.25927198  0.07953753  0.38341133    -0.09600
C5017       C  0.25058210  0.06978226  0.40833620    -0.26200
S5018       S  0.24564413  0.06049131  0.57806623    -0.03400
C5019       C  0.25802012  0.07228260  0.60540431    -0.16800
C5020       C  0.26606284  0.08184743  0.57896891    -0.14800
H5021       H  0.27698741  0.09614359  0.50653716     0.20500
H5022       H  0.23855251  0.05556282  0.48258601     0.16600
H5023       H  0.24306585  0.06132150  0.39500512     0.19100
H5024       H  0.27451647  0.08980193  0.59027920     0.12400
C5025       C  0.34010852  0.08707982  0.37681568     0.16300
C5026       C  0.33140768  0.08080442  0.34347467    -0.32700
C5027       C  0.31945812  0.07873826  0.34962026     0.20700
C5028       C  0.31616080  0.08213883  0.38826665     0.02900
C5029       C  0.32462292  0.08769338  0.42253704    -0.22500
C5030       C  0.33669099  0.09036524  0.41541311     0.12100
S5031       S  0.35570079  0.09362555  0.37080590    -0.06100
C5032       C  0.35754209  0.10103615  0.42023704    -0.09600
C5033       C  0.34660679  0.09812189  0.44063879    -0.26200
S5034       S  0.30216740  0.08113659  0.38658064    -0.03400
C5035       C  0.30078210  0.07637348  0.33279740    -0.16800
C5036       C  0.31050912  0.07513993  0.31790288    -0.14800
H5037       H  0.33414396  0.07879014  0.31236526     0.20500
H5038       H  0.32223610  0.09095888  0.45168083     0.16600
H5039       H  0.34600690  0.10275580  0.46975027     0.19100
H5040       H  0.31155831  0.07298330  0.28436568     0.12400
loop_ 
_geom_bond_atom_site_label_1 
_geom_bond_atom_site_label_2 
_geom_bond_distance 
_geom_bond_site_symmetry_2 
_ccdc_geom_bond_type 
O1          Cr19   1.995       .  S
O1            C9   1.265       .  A
O2          Cr19   1.975       .  S
O2            C3   1.258       .  A
C3            O4   1.268       .  A
C3         C5035   1.475       .  S
O4          Cr20   2.023       .  S
O5          Cr20   1.971       .  S
O5            C6   1.261       .  A
C6            O7   1.269       .  A
C6         C4984   1.476       .  S
O7          Cr21   2.024       .  S
O8          Cr21   1.997       .  S
O8            C9   1.264       .  A
C9         C5016   1.471       .  S
O10         Cr19   1.975       .  S
O10          C18   1.261       .  A
O11         Cr19   2.017       .  S
O11          C12   1.266       .  A
C12          O13   1.257       .  A
C12        C4971   1.466       .  S
O13         Cr20   1.972       .  S
O14         Cr20   1.999       .  S
O14          C15   1.265       .  A
C15          O16   1.265       .  A
C15        C5003   1.477       .  S
O16         Cr21   2.001       .  S
O17         Cr21   2.021       .  S
O17          C18   1.268       .  A
C18        C4952   1.476       .  S
Cr19         O22   1.761       .  S
Cr20         O22   1.762       .  S
Cr21         O22   1.774       .  S
O23         Cr41   1.969       .  S
O23          C31   1.261       .  A
O24         Cr41   1.993       .  S
O24          C25   1.261       .  A
C25          O26   1.258       .  A
C25        C4936   1.461       .  S
O26         Cr42   1.987       .  S
O27         Cr42   2.009       .  S
O27          C28   1.266       .  A
C28          O29   1.263       .  A
C28        C4923   1.484       .  S
O29         Cr43   1.991       .  S
O30         Cr43   2.033       .  S
O30          C31   1.272       .  A
C31        C5000   1.471       .  S
O32         Cr41   1.996       .  S
O32          C40   1.261       .  A
O33         Cr41   1.993       .  S
O33          C34   1.264       .  A
C34          O35   1.268       .  A
C34        C4904   1.468       .  S
O35         Cr42   2.013       .  S
O36         Cr42   1.957       .  S
O36          C37   1.256       .  A
C37          O38   1.267       .  A
C37        C5019   1.465       .  S
O38         Cr43   2.024       .  S
O39         Cr43   2.011       .  S
O39          C40   1.263       .  A
C40        C4891   1.485       .  S
Cr41         O44   1.767       .  S
Cr42         O44   1.773       .  S
Cr43         O44   1.784       .  S
O45         Cr63   1.992       .  S
O45          C53   1.263       .  A
O46         Cr63   1.977       .  S
O46          C47   1.257       .  A
C47          O48   1.265       .  A
C47        C4872   1.469       .  S
O48         Cr64   2.017       .  S
O49         Cr64   1.974       .  S
O49          C50   1.262       .  A
C50          O51   1.270       .  A
C50        C4987   1.476       .  S
O51         Cr65   2.024       .  S
O52         Cr65   2.011       .  S
O52          C53   1.267       .  A
C53        C4856   1.483       .  S
O54         Cr63   1.967       .  S
O54          C62   1.259       .  A
O55         Cr63   2.006       .  S
O55          C56   1.266       .  A
C56          O57   1.260       .  A
C56        C4824   1.469       .  S
O57         Cr64   1.977       .  S
O58         Cr64   2.002       .  S
O58          C59   1.263       .  A
C59          O60   1.264       .  A
C59        C4843   1.474       .  S
O60         Cr65   2.002       .  S
O61         Cr65   2.020       .  S
O61          C62   1.268       .  A
C62        C4808   1.474       .  S
Cr63         O66   1.764       .  S
Cr64         O66   1.771       .  S
Cr65         O66   1.772       .  S
O67         Cr85   1.963       .  S
O67          C75   1.260       .  A
O68         Cr85   1.999       .  S
O68          C69   1.262       .  A
C69          O70   1.262       .  A
C69        C4792   1.467       .  S
O70         Cr86   1.991       .  S
O71         Cr86   2.004       .  S
O71          C72   1.263       .  A
C72          O73   1.260       .  A
C72        C4920   1.479       .  S
O73         Cr87   1.989       .  S
O74         Cr87   2.033       .  S
O74          C75   1.274       .  A
C75        C4840   1.469       .  S
O76         Cr85   1.986       .  S
O76          C84   1.257       .  A
O77         Cr85   1.990       .  S
O77          C78   1.260       .  A
C78          O79   1.263       .  A
C78        C4776   1.463       .  S
O79         Cr86   1.998       .  S
O80         Cr86   1.972       .  S
O80          C81   1.260       .  A
C81          O82   1.271       .  A
C81        C4859   1.481       .  S
O82         Cr87   2.032       .  S
O83         Cr87   2.002       .  S
O83          C84   1.259       .  A
C84        C4760   1.478       .  S
Cr85         O88   1.777       .  S
Cr86         O88   1.781       .  S
Cr87         O88   1.790       .  S
O89        Cr107   1.978       .  S
O89          C97   1.262       .  A
O90        Cr107   1.993       .  S
O90          C91   1.262       .  A
C91          O92   1.262       .  A
C91        C5032   1.467       .  S
O92        Cr108   1.995       .  S
O93        Cr108   2.018       .  S
O93          C94   1.265       .  A
C94          O95   1.264       .  A
C94        C4715   1.484       .  S
O95        Cr109   2.000       .  S
O96        Cr109   2.024       .  S
O96          C97   1.268       .  A
C97        C4747   1.472       .  S
O98        Cr107   1.999       .  S
O98         C106   1.263       .  A
O99        Cr107   1.994       .  S
O99         C100   1.264       .  A
C100        O101   1.265       .  A
C100       C4907   1.471       .  S
O101       Cr108   1.995       .  S
O102       Cr108   1.960       .  S
O102        C103   1.255       .  A
C103        O104   1.269       .  A
C103       C4728   1.470       .  S
O104       Cr109   2.032       .  S
O105       Cr109   2.003       .  S
O105        C106   1.264       .  A
C106       C4696   1.478       .  S
Cr107       O110   1.772       .  S
Cr108       O110   1.773       .  S
Cr109       O110   1.780       .  S
O111       Cr129   1.998       .  S
O111        C119   1.266       .  A
O112       Cr129   1.984       .  S
O112        C113   1.258       .  A
C113        O114   1.263       .  A
C113       C4939   1.473       .  S
O114       Cr130   2.009       .  S
O115       Cr130   1.972       .  S
O115        C116   1.261       .  A
C116        O117   1.272       .  A
C116       C4680   1.481       .  S
O117       Cr131   2.039       .  S
O118       Cr131   2.005       .  S
O118        C119   1.267       .  A
C119       C4731   1.479       .  S
O120       Cr129   1.981       .  S
O120        C128   1.262       .  A
O121       Cr129   2.026       .  S
O121        C122   1.270   1_556  A
C122        O123   1.257       .  A
C122       C4968   1.469       .  S
O123       Cr130   1.967   1_554  S
O124       Cr130   1.992   1_554  S
O124        C125   1.261       .  A
C125        O126   1.265       .  A
C125       C4744   1.478       .  S
O126       Cr131   2.009   1_554  S
O127       Cr131   2.028       .  S
O127        C128   1.269       .  A
C128       C4667   1.487       .  S
Cr129       O132   1.767       .  S
Cr130       O132   1.766       .  S
Cr131       O132   1.775       .  S
O133       Cr151   1.958       .  S
O133        C141   1.263       .  A
O134       Cr151   1.986       .  S
O134        C135   1.255       .  A
C135        O136   1.261       .  A
C135       C4651   1.471       .  S
O136       Cr152   2.013       .  S
O137       Cr152   2.008       .  S
O137        C138   1.264       .  A
C138        O139   1.261       .  A
C138       C4712   1.486       .  S
O139       Cr153   1.998       .  S
O140       Cr153   2.037       .  S
O140        C141   1.276       .  A
C141       C4616   1.474       .  S
O142       Cr151   1.989       .  S
O142        C150   1.256       .  A
O143       Cr151   1.978       .  S
O143        C144   1.266       .  A
C144        O145   1.273       .  A
C144       C4603   1.466       .  S
O145       Cr152   2.014       .  S
O146       Cr152   1.966       .  S
O146        C147   1.258       .  A
C147        O148   1.269       .  A
C147       C4635   1.469       .  S
O148       Cr153   2.016       .  S
O149       Cr153   2.010       .  S
O149        C150   1.257       .  A
C150       C4584   1.481       .  S
Cr151       O154   1.775       .  S
Cr152       O154   1.778       .  S
Cr153       O154   1.782       .  S
O155       Cr173   1.965   1_554  S
O155        C163   1.260       .  A
O156       Cr173   1.998       .  S
O156        C157   1.262       .  A
C157        O158   1.261       .  A
C157       C4568   1.464       .  S
O158       Cr174   1.988       .  S
O159       Cr174   1.995       .  S
O159        C160   1.262       .  A
C160        O161   1.259       .  A
C160       C4683   1.483       .  S
O161       Cr175   1.995       .  S
O162       Cr175   2.023       .  S
O162        C163   1.271   1_556  A
C163       C4632   1.465       .  S
O164       Cr173   1.994       .  S
O164        C172   1.261       .  A
O165       Cr173   2.005       .  S
O165        C166   1.266       .  A
C166        O167   1.263       .  A
C166       C4555   1.472       .  S
O167       Cr174   1.992       .  S
O168       Cr174   1.957       .  S
O168        C169   1.259       .  A
C169        O170   1.270       .  A
C169       C4619   1.478       .  S
O170       Cr175   2.027       .  S
O171       Cr175   1.998       .  S
O171        C172   1.259       .  A
C172       C4536   1.482       .  S
Cr173       O176   1.777       .  S
Cr174       O176   1.774       .  S
Cr175       O176   1.788       .  S
O177       Cr195   1.952       .  S
O177        C185   1.261       .  A
O178       Cr195   2.001       .  S
O178        C179   1.260       .  A
C179        O180   1.259       .  A
C179       C4571   1.468       .  S
O180       Cr196   1.989       .  S
O181       Cr196   2.003       .  S
O181        C182   1.265       .  A
C182        O183   1.259       .  A
C182       C4491   1.476       .  S
O183       Cr197   1.977       .  S
O184       Cr197   2.042       .  S
O184        C185   1.275       .  A
C185       C4507   1.468   1_554  S
O186       Cr195   1.997       .  S
O186        C194   1.259       .  A
O187       Cr195   1.988       .  S
O187        C188   1.265       .  A
C188        O189   1.267       .  A
C188       C4600   1.459       .  S
O189       Cr196   2.001       .  S
O190       Cr196   1.945       .  S
O190        C191   1.254       .  A
C191        O192   1.268       .  A
C191       C4520   1.469       .  S
O192       Cr197   2.031       .  S
O193       Cr197   1.999       .  S
O193        C194   1.257       .  A
C194       C4475   1.478       .  S
Cr195       O198   1.769       .  S
Cr196       O198   1.771       .  S
Cr197       O198   1.787       .  S
O199       Cr217   1.966       .  S
O199        C207   1.264       .  A
O200       Cr217   2.009       .  S
O200        C201   1.262       .  A
C201        O202   1.258       .  A
C201       C4648   1.470       .  S
O202       Cr218   1.988       .  S
O203       Cr218   1.978       .  S
O203        C204   1.256       .  A
C204        O205   1.259       .  A
C204       C4456   1.466       .  S
O205       Cr219   1.987       .  S
O206       Cr219   2.018       .  S
O206        C207   1.270       .  A
C207       C4523   1.472       .  S
O208       Cr217   1.987       .  S
O208        C216   1.256       .  A
O209       Cr217   1.991       .  S
O209        C210   1.262       .  A
C210        O211   1.265       .  A
C210       C4552   1.473       .  S
O211       Cr218   1.993       .  S
O212       Cr218   1.964       .  S
O212        C213   1.261       .  A
C213        O214   1.268       .  A
C213       C4504   1.472       .  S
O214       Cr219   2.014       .  S
O215       Cr219   1.993       .  S
O215        C216   1.257       .  A
C216       C4440   1.470       .  S
Cr217       O220   1.782       .  S
Cr218       O220   1.781       .  S
Cr219       O220   1.793       .  S
O221       Cr239   1.999       .  S
O221        C229   1.266       .  A
O222       Cr239   1.989       .  S
O222        C223   1.259       .  A
C223        O224   1.261       .  A
C223       C4875   1.468       .  S
O224       Cr240   2.003       .  S
O225       Cr240   1.976       .  S
O225        C226   1.261       .  A
C226        O227   1.271       .  A
C226       C4488   1.476       .  S
O227       Cr241   2.031       .  S
O228       Cr241   1.998       .  S
O228        C229   1.267       .  A
C229       C4424   1.478       .  S
O230       Cr239   1.974       .  S
O230        C238   1.259       .  A
O231       Cr239   2.011       .  S
O231        C232   1.267       .  A
C232        O233   1.260   1_554  A
C232       C4779   1.467   1_554  S
O233       Cr240   1.968   1_556  S
O234       Cr240   2.001       .  S
O234        C235   1.263   1_554  A
C235        O236   1.264   1_556  A
C235       C4408   1.477       .  S
O236       Cr241   2.002       .  S
O237       Cr241   2.025       .  S
O237        C238   1.267       .  A
C238       C4392   1.481       .  S
Cr239       O242   1.765       .  S
Cr240       O242   1.770       .  S
Cr241       O242   1.776       .  S
O243       Cr261   1.973       .  S
O243        C251   1.262       .  A
O244       Cr261   1.999       .  S
O244        C245   1.260       .  A
C245        O246   1.259       .  A
C245       C4795   1.466       .  S
O246       Cr262   1.989       .  S
O247       Cr262   2.002       .  S
O247        C248   1.265       .  A
C248        O249   1.260       .  A
C248       C4459   1.471       .  S
O249       Cr263   1.975       .  S
O250       Cr263   2.037       .  S
O250        C251   1.274       .  A
C251       C4411   1.471       .  S
O252       Cr261   1.999       .  S
O252        C260   1.261       .  A
O253       Cr261   1.986       .  S
O253        C254   1.263       .  A
C254        O255   1.266       .  A
C254       C4827   1.456       .  S
O255       Cr262   1.996       .  S
O256       Cr262   1.960       .  S
O256        C257   1.255       .  A
C257        O258   1.267       .  A
C257       C4427   1.473       .  S
O258       Cr263   2.027       .  S
O259       Cr263   1.996       .  S
O259        C260   1.258       .  A
C260       C4376   1.477       .  S
Cr261       O264   1.770       .  S
Cr262       O264   1.772       .  S
Cr263       O264   1.782       .  S
O265       Cr283   1.965       .  S
O265        C273   1.258       .  A
O266       Cr283   1.997       .  S
O266        C267   1.262       .  A
C267        O268   1.263       .  A
C267       C4363   1.469       .  S
O268       Cr284   1.996       .  S
O269       Cr284   2.009       .  S
O269        C270   1.266       .  A
C270        O271   1.259       .  A
C270       C4312   1.476       .  S
O271       Cr285   1.979       .  S
O272       Cr285   2.029       .  S
O272        C273   1.270       .  A
C273       C4344   1.468       .  S
O274       Cr283   2.005       .  S
O274        C282   1.263       .  A
O275       Cr283   1.991       .  S
O275        C276   1.263       .  A
C276        O277   1.264       .  A
C276       C4296   1.461       .  S
O277       Cr284   1.997       .  S
O278       Cr284   1.969       .  S
O278        C279   1.258       .  A
C279        O280   1.267       .  A
C279       C4328   1.471       .  S
O280       Cr285   2.024       .  S
O281       Cr285   1.989       .  S
O281        C282   1.258       .  A
C282       C4280   1.481       .  S
Cr283       O286   1.773       .  S
Cr284       O286   1.776       .  S
Cr285       O286   1.791       .  S
O287       Cr305   2.006       .  S
O287        C295   1.267       .  A
O288       Cr305   1.984       .  S
O288        C289   1.258       .  A
C289        O290   1.264       .  A
C289       C4264   1.470       .  S
O290       Cr306   2.011       .  S
O291       Cr306   1.975       .  S
O291        C292   1.262       .  A
C292        O293   1.270       .  A
C292       C4248   1.476       .  S
O293       Cr307   2.024       .  S
O294       Cr307   1.990       .  S
O294        C295   1.263       .  A
C295       C4331   1.479       .  S
O296       Cr305   1.978       .  S
O296        C304   1.259       .  A
O297       Cr305   2.016       .  S
O297        C298   1.268   1_556  A
C298        O299   1.259       .  A
C298       C4232   1.467       .  S
O299       Cr306   1.970   1_554  S
O300       Cr306   2.002   1_554  S
O300        C301   1.264       .  A
C301        O302   1.264       .  A
C301       C4347   1.478       .  S
O302       Cr307   1.997   1_554  S
O303       Cr307   2.023       .  S
O303        C304   1.268       .  A
C304       C4216   1.479       .  S
Cr305       O308   1.766       .  S
Cr306       O308   1.766       .  S
Cr307       O308   1.771       .  S
O309       Cr327   1.958       .  S
O309        C317   1.269       .  A
O310       Cr327   1.983       .  S
O310        C311   1.249       .  A
C311        O312   1.251       .  A
C311       C4200   1.466       .  S
O312       Cr328   2.004       .  S
O313       Cr328   1.973       .  S
O313        C314   1.258       .  A
C314        O315   1.263       .  A
C314       C4315   1.478       .  S
O315       Cr329   2.002       .  S
O316       Cr329   2.043       .  S
O316        C317   1.282       .  A
C317       C4168   1.471       .  S
O318       Cr327   1.978       .  S
O318        C326   1.248       .  A
O319       Cr327   1.981       .  S
O319        C320   1.271       .  A
C320        O321   1.277       .  A
C320       C4152   1.469       .  S
O321       Cr328   2.015       .  S
O322       Cr328   1.966       .  S
O322        C323   1.261       .  A
C323        O324   1.265       .  A
C323       C4184   1.473       .  S
O324       Cr329   2.002       .  S
O325       Cr329   2.001       .  S
O325        C326   1.250       .  A
C326       C4136   1.474       .  S
Cr327       O330   1.779       .  S
Cr328       O330   1.770       .  S
Cr329       O330   1.784       .  S
O331       Cr349   1.957       .  S
O331        C339   1.263       .  A
O332       Cr349   2.000       .  S
O332        C333   1.258       .  A
C333        O334   1.258       .  A
C333       C4120   1.468       .  S
O334       Cr350   1.994       .  S
O335       Cr350   1.990       .  S
O335        C336   1.260       .  A
C336        O337   1.259       .  A
C336       C4251   1.479       .  S
O337       Cr351   1.988       .  S
O338       Cr351   2.035       .  S
O338        C339   1.275       .  A
C339       C4187   1.465   1_556  S
O340       Cr349   1.989       .  S
O340        C348   1.255       .  A
O341       Cr349   1.984       .  S
O341        C342   1.264       .  A
C342        O343   1.269       .  A
C342       C4104   1.460       .  S
O343       Cr350   2.009       .  S
O344       Cr350   1.950       .  S
O344        C345   1.259       .  A
C345        O346   1.271       .  A
C345       C4171   1.479       .  S
O346       Cr351   2.027       .  S
O347       Cr351   1.995       .  S
O347        C348   1.256       .  A
C348       C4088   1.474       .  S
Cr349       O352   1.776       .  S
Cr350       O352   1.779       .  S
Cr351       O352   1.792       .  S
O353       Cr371   1.961       .  S
O353        C361   1.273       .  A
O354       Cr371   1.993       .  S
O354        C355   1.248       .  A
C355        O356   1.246       .  A
C355       C4072   1.461       .  S
O356       Cr372   1.991       .  S
O357       Cr372   1.964       .  S
O357        C358   1.253       .  A
C358        O359   1.263       .  A
C358       C4024   1.475       .  S
O359       Cr373   2.008       .  S
O360       Cr373   2.049       .  S
O360        C361   1.286       .  A
C361       C4059   1.475       .  S
O362       Cr371   1.981       .  S
O362        C370   1.248       .  A
O363       Cr371   1.986       .  S
O363        C364   1.274       .  A
C364        O365   1.278       .  A
C364       C4011   1.471   1_554  S
O365       Cr372   2.014       .  S
O366       Cr372   1.966   1_556  S
O366        C367   1.260       .  A
C367        O368   1.266   1_556  A
C367       C4040   1.470       .  S
O368       Cr373   2.001       .  S
O369       Cr373   2.006       .  S
O369        C370   1.250       .  A
C370       C3992   1.483       .  S
Cr371       O374   1.780       .  S
Cr372       O374   1.771       .  S
Cr373       O374   1.785       .  S
O375       Cr393   1.961       .  S
O375        C383   1.259       .  A
O376       Cr393   2.000       .  S
O376        C377   1.263       .  A
C377        O378   1.256       .  A
C377       C3976   1.455       .  S
O378       Cr394   1.975       .  S
O379       Cr394   1.998       .  S
O379        C380   1.262       .  A
C380        O381   1.261       .  A
C380       C3963   1.479       .  S
O381       Cr395   1.991       .  S
O382       Cr395   2.036       .  S
O382        C383   1.272       .  A
C383       C4043   1.468       .  S
O384       Cr393   1.993       .  S
O384        C392   1.262       .  A
O385       Cr393   1.992       .  S
O385        C386   1.262       .  A
C386        O387   1.265       .  A
C386       C3947   1.465       .  S
O387       Cr394   2.006       .  S
O388       Cr394   1.948       .  S
O388        C389   1.257       .  A
C389        O390   1.272       .  A
C389       C4056   1.477       .  S
O390       Cr395   2.035       .  S
O391       Cr395   1.997       .  S
O391        C392   1.260       .  A
C392       C3928   1.478       .  S
Cr393       O396   1.767       .  S
Cr394       O396   1.771       .  S
Cr395       O396   1.781       .  S
O397       Cr415   1.955       .  S
O397        C405   1.258       .  A
O398       Cr415   1.998       .  S
O398        C399   1.262       .  A
C399        O400   1.264       .  A
C399       C4123   1.469       .  S
O400       Cr416   1.999       .  S
O401       Cr416   2.013       .  S
O401        C402   1.267       .  A
C402        O403   1.258       .  A
C402       C4027   1.476       .  S
O403       Cr417   1.972       .  S
O404       Cr417   2.042       .  S
O404        C405   1.274       .  A
C405       C3899   1.473   1_554  S
O406       Cr415   2.003       .  S
O406        C414   1.262       .  A
O407       Cr415   1.989       .  S
O407        C408   1.262       .  A
C408        O409   1.267       .  A
C408       C4155   1.464       .  S
O409       Cr416   2.003       .  S
O410       Cr416   1.969       .  S
O410        C411   1.258       .  A
C411        O412   1.269       .  A
C411       C3912   1.475       .  S
O412       Cr417   2.031       .  S
O413       Cr417   1.986       .  S
O413        C414   1.256       .  A
C414       C3880   1.477       .  S
Cr415       O418   1.769       .  S
Cr416       O418   1.772       .  S
Cr417       O418   1.783       .  S
O419       Cr437   2.016       .  S
O419        C427   1.270       .  A
O420       Cr437   1.970       .  S
O420        C421   1.256       .  A
C421        O422   1.263       .  A
C421       C4203   1.470       .  S
O422       Cr438   2.018       .  S
O423       Cr438   1.969       .  S
O423        C424   1.260       .  A
C424        O425   1.276       .  A
C424       C3960   1.479       .  S
O425       Cr439   2.042       .  S
O426       Cr439   1.982       .  S
O426        C427   1.262       .  A
C427       C3915   1.481       .  S
O428       Cr437   1.961       .  S
O428        C436   1.255       .  A
O429       Cr437   2.024       .  S
O429        C430   1.271       .  A
C430        O431   1.258       .  A
C430       C4107   1.470       .  S
O431       Cr438   1.962       .  S
O432       Cr438   1.997       .  S
O432        C433   1.263       .  A
C433        O434   1.264       .  A
C433       C3896   1.474       .  S
O434       Cr439   1.999       .  S
O435       Cr439   2.045       .  S
O435        C436   1.272       .  A
C436       C3867   1.485       .  S
Cr437       O440   1.759       .  S
Cr438       O440   1.768       .  S
Cr439       O440   1.774       .  S
O441       Cr459   2.003       .  S
O441        C449   1.267       .  A
O442       Cr459   1.960       .  S
O442        C443   1.255       .  A
C443        O444   1.266       .  A
C443       C4075   1.466       .  S
O444       Cr460   2.022       .  S
O445       Cr460   1.979       .  S
O445        C446   1.260       .  A
C446        O447   1.271       .  A
C446       C3816   1.482       .  S
O447       Cr461   2.035       .  S
O448       Cr461   2.004       .  S
O448        C449   1.267       .  A
C449       C3851   1.481       .  S
O450       Cr459   1.954       .  S
O450        C458   1.254       .  A
O451       Cr459   2.017       .  S
O451        C452   1.267       .  A
C452        O453   1.259       .  A
C452       C3944   1.474       .  S
O453       Cr460   1.973       .  S
O454       Cr460   2.010       .  S
O454        C455   1.268       .  A
C455        O456   1.264       .  A
C455       C3835   1.478       .  S
O456       Cr461   1.989       .  S
O457       Cr461   2.039       .  S
O457        C458   1.270       .  A
C458       C3803   1.469       .  S
Cr459       O462   1.757       .  S
Cr460       O462   1.767       .  S
Cr461       O462   1.776       .  S
O463       Cr481   1.965       .  S
O463        C471   1.258       .  A
O464       Cr481   1.998       .  S
O464        C465   1.263       .  A
C465        O466   1.259       .  A
C465       C3979   1.458       .  S
O466       Cr482   1.980       .  S
O467       Cr482   2.015       .  S
O467        C468   1.267       .  A
C468        O469   1.262       .  A
C468       C3784   1.486       .  S
O469       Cr483   1.990       .  S
O470       Cr483   2.030       .  S
O470        C471   1.270       .  A
C471       C3832   1.468       .  S
O472       Cr481   1.996       .  S
O472        C480   1.263       .  A
O473       Cr481   1.991       .  S
O473        C474   1.261       .  A
C474        O475   1.267       .  A
C474       C4008   1.470       .  S
O475       Cr482   2.011       .  S
O476       Cr482   1.969       .  S
O476        C477   1.259       .  A
C477        O478   1.270       .  A
C477       C3848   1.477       .  S
O478       Cr483   2.032       .  S
O479       Cr483   1.995       .  S
O479        C480   1.261       .  A
C480       C3768   1.476       .  S
Cr481       O484   1.772       .  S
Cr482       O484   1.769       .  S
Cr483       O484   1.782       .  S
O485       Cr503   1.947       .  S
O485        C493   1.258       .  A
O486       Cr503   1.997       .  S
O486        C487   1.260       .  A
C487        O488   1.260       .  A
C487       C4360   1.466       .  S
O488       Cr504   1.995       .  S
O489       Cr504   2.009       .  S
O489        C490   1.266       .  A
C490        O491   1.262       .  A
C490       C3819   1.486       .  S
O491       Cr505   1.989       .  S
O492       Cr505   2.036       .  S
O492        C493   1.274       .  A
C493       C3752   1.461       .  S
O494       Cr503   1.998       .  S
O494        C502   1.260       .  A
O495       Cr503   1.973       .  S
O495        C496   1.261       .  A
C496        O497   1.268       .  A
C496       C4235   1.455       .  S
O497       Cr504   2.009       .  S
O498       Cr504   1.958       .  S
O498        C499   1.256       .  A
C499        O500   1.268       .  A
C499       C3736   1.465       .  S
O500       Cr505   2.024       .  S
O501       Cr505   2.001       .  S
O501        C502   1.259       .  A
C502       C3720   1.483       .  S
Cr503       O506   1.771       .  S
Cr504       O506   1.774       .  S
Cr505       O506   1.783       .  S
O507       Cr525   2.005       .  S
O507        C515   1.267       .  A
O508       Cr525   1.980       .  S
O508        C509   1.259       .  A
C509        O510   1.264       .  A
C509       C4267   1.469       .  S
O510       Cr526   2.011       .  S
O511       Cr526   1.993       .  S
O511        C512   1.265       .  A
C512        O513   1.273       .  A
C512       C3787   1.490       .  S
O513       Cr527   2.033       .  S
O514       Cr527   1.984       .  S
O514        C515   1.263       .  A
C515       C3739   1.474       .  S
O516       Cr525   1.973       .  S
O516        C524   1.258       .  A
O517       Cr525   2.009       .  S
O517        C518   1.266       .  A
C518        O519   1.262       .  A
C518       C4299   1.473       .  S
O519       Cr526   1.981       .  S
O520       Cr526   1.997       .  S
O520        C521   1.264       .  A
C521        O522   1.260       .  A
C521       C3755   1.469       .  S
O522       Cr527   1.985       .  S
O523       Cr527   2.033       .  S
O523        C524   1.269       .  A
C524       C3704   1.486       .  S
Cr525       O528   1.765       .  S
Cr526       O528   1.773       .  S
Cr527       O528   1.774       .  S
O529       Cr547   2.036       .  S
O529        C537   1.277       .  A
O530       Cr547   2.004       .  S
O530        C531   1.264       .  A
C531        O532   1.259       .  A
C531       C3640   1.477       .  S
O532       Cr548   1.979       .  S
O533       Cr548   1.999       .  S
O533        C534   1.254       .  A
C534        O535   1.251       .  A
C534       C3691   1.466       .  S
O535       Cr549   1.986       .  S
O536       Cr549   1.959       .  S
O536        C537   1.266       .  A
C537       C3675   1.465       .  S
O538       Cr547   2.011       .  S
O538        C546   1.256       .  A
O539       Cr547   2.003       .  S
O539        C540   1.264       .  A
C540        O541   1.260       .  A
C540       C3656   1.472       .  S
O541       Cr548   1.959       .  S
O542       Cr548   2.013       .  S
O542        C543   1.273       .  A
C543        O544   1.270       .  A
C543       C3624   1.468       .  S
O544       Cr549   1.991       .  S
O545       Cr549   1.981       .  S
O545        C546   1.251       .  A
C546       C3723   1.481       .  S
Cr547       O550   1.796       .  S
Cr548       O550   1.778       .  S
Cr549       O550   1.777       .  S
O551       Cr569   2.031       .  S
O551        C559   1.273       .  A
O552       Cr569   2.001       .  S
O552        C553   1.263       .  A
C553        O554   1.262       .  A
C553       C3592   1.483       .  S
O554       Cr570   1.988       .  S
O555       Cr570   2.002       .  S
O555        C556   1.258       .  A
C556        O557   1.256       .  A
C556       C3608   1.470       .  S
O557       Cr571   1.994       .  S
O558       Cr571   1.949       .  S
O558        C559   1.261       .  A
C559       C3659   1.463       .  S
O560       Cr569   2.006       .  S
O560        C568   1.257       .  A
O561       Cr569   2.008       .  S
O561        C562   1.265       .  A
C562        O563   1.259       .  A
C562       C3672   1.467       .  S
O563       Cr570   1.957       .  S
O564       Cr570   2.011       .  S
O564        C565   1.270       .  A
C565        O566   1.265       .  A
C565       C3576   1.461       .  S
O566       Cr571   1.979       .  S
O567       Cr571   1.990       .  S
O567        C568   1.256       .  A
C568       C3707   1.479       .  S
Cr569       O572   1.797       .  S
Cr570       O572   1.777       .  S
Cr571       O572   1.780       .  S
O573       Cr591   2.027       .  S
O573        C581   1.272       .  A
O574       Cr591   1.987       .  S
O574        C575   1.262       .  A
C575        O576   1.265       .  A
C575       C3643   1.479       .  S
O576       Cr592   1.999       .  S
O577       Cr592   1.995       .  S
O577        C578   1.257       .  A
C578        O579   1.255       .  A
C578       C3563   1.462       .  S
O579       Cr593   1.983       .  S
O580       Cr593   1.969       .  S
O580        C581   1.263       .  A
C581       C3544   1.463       .  S
O582       Cr591   2.002       .  S
O582        C590   1.260       .  A
O583       Cr591   2.021       .  S
O583        C584   1.266       .  A
C584        O585   1.254       .  A
C584       C3531   1.465       .  S
O585       Cr592   1.957       .  S
O586       Cr592   2.004       .  S
O586        C587   1.270       .  A
C587        O588   1.263       .  A
C587       C3512   1.459       .  S
O588       Cr593   1.975       .  S
O589       Cr593   1.985       .  S
O589        C590   1.257       .  A
C590       C4811   1.472       .  S
Cr591       O594   1.786       .  S
Cr592       O594   1.775       .  S
Cr593       O594   1.773       .  S
O595       Cr613   1.986       .  S
O595        C603   1.262       .  A
O596       Cr613   2.027       .  S
O596        C597   1.270       .  A
C597        O598   1.262       .  A
C597       C3595   1.478       .  S
O598       Cr614   1.977       .  S
O599       Cr614   2.007       .  S
O599        C600   1.263       .  A
C600        O601   1.257       .  A
C600       C3499   1.472       .  S
O601       Cr615   1.981       .  S
O602       Cr615   2.001       .  S
O602        C603   1.267       .  A
C603       C3528   1.473       .  S
O604       Cr613   2.036       .  S
O604        C612   1.270       .  A
O605       Cr613   1.994       .  S
O605        C606   1.265       .  A
C606        O607   1.264       .  A
C606       C3547   1.471       .  S
O607       Cr614   1.998       .  S
O608       Cr614   1.969       .  S
O608        C609   1.261       .  A
C609        O610   1.268       .  A
C609       C3483   1.474       .  S
O610       Cr615   2.019       .  S
O611       Cr615   1.967       .  S
O611        C612   1.257       .  A
C612       C4763   1.482       .  S
Cr613       O616   1.776       .  S
Cr614       O616   1.763       .  S
Cr615       O616   1.766       .  S
O617       Cr635   1.993       .  S
O617        C625   1.262       .  A
O618       Cr635   2.038       .  S
O618        C619   1.274       .  A
C619        O620   1.263       .  A
C619       C3400   1.485       .  S
O620       Cr636   1.975       .  S
O621       Cr636   2.011       .  S
O621        C622   1.265       .  A
C622        O623   1.260       .  A
C622       C3467   1.471       .  S
O623       Cr637   1.982       .  S
O624       Cr637   1.997       .  S
O624        C625   1.264       .  A
C625       C3435   1.476       .  S
O626       Cr635   2.042       .  S
O626        C634   1.272       .  A
O627       Cr635   2.003       .  S
O627        C628   1.264       .  A
C628        O629   1.262       .  A
C628       C3448   1.477       .  S
O629       Cr636   1.993       .  S
O630       Cr636   1.985       .  S
O630        C631   1.262       .  A
C631        O632   1.263       .  A
C631       C3419   1.464       .  S
O632       Cr637   2.000       .  S
O633       Cr637   1.967       .  S
O633        C634   1.258       .  A
C634       C3384   1.486       .  S
Cr635       O638   1.775       .  S
Cr636       O638   1.765       .  S
Cr637       O638   1.765       .  S
O639       Cr657   2.029       .  S
O639        C647   1.269   1_556  A
O640       Cr657   1.995       .  S
O640        C641   1.265       .  A
C641        O642   1.268       .  A
C641       C3336   1.486       .  S
O642       Cr658   2.011       .  S
O643       Cr658   1.990       .  S
O643        C644   1.261       .  A
C644        O645   1.262       .  A
C644       C3368   1.467       .  S
O645       Cr659   1.996       .  S
O646       Cr659   1.974       .  S
O646        C647   1.260   1_556  A
C647       C3451   1.473       .  S
O648       Cr657   2.003       .  S
O648        C656   1.263       .  A
O649       Cr657   2.024       .  S
O649        C650   1.265       .  A
C650        O651   1.254       .  A
C650       C3432   1.466       .  S
O651       Cr658   1.959       .  S
O652       Cr658   2.000       .  S
O652        C653   1.264       .  A
C653        O654   1.262       .  A
C653       C3352   1.464       .  S
O654       Cr659   1.987       .  S
O655       Cr659   2.005       .  S
O655        C656   1.265       .  A
C656       C3320   1.485       .  S
Cr657       O660   1.790       .  S
Cr658       O660   1.774       .  S
Cr659       O660   1.772       .  S
O661       Cr679   2.001       .  S
O661        C669   1.263       .  A
O662       Cr679   2.028       .  S
O662        C663   1.273       .  A
C663        O664   1.265       .  A
C663       C3403   1.483       .  S
O664       Cr680   1.981       .  S
O665       Cr680   2.020       .  S
O665        C666   1.264       .  A
C666        O667   1.256       .  A
C666       C3688   1.474       .  S
O667       Cr681   1.978       .  S
O668       Cr681   2.002       .  S
O668        C669   1.265       .  A
C669       C3304   1.477       .  S
O670       Cr679   2.034       .  S
O670        C678   1.270       .  A
O671       Cr679   2.011       .  S
O671        C672   1.265       .  A
C672        O673   1.262       .  A
C672       C3288   1.481       .  S
O673       Cr680   2.008       .  S
O674       Cr680   1.980       .  S
O674        C675   1.263       .  A
C675        O676   1.270       .  A
C675       C3579   1.474       .  S
O676       Cr681   2.019       .  S
O677       Cr681   1.964       .  S
O677        C678   1.258       .  A
C678       C4283   1.480       .  S
Cr679       O682   1.771       .  S
Cr680       O682   1.773       .  S
Cr681       O682   1.766       .  S
O683       Cr701   2.002       .  S
O683        C691   1.266       .  A
O684       Cr701   2.031       .  S
O684        C685   1.271       .  A
C685        O686   1.264       .  A
C685       C3339   1.485       .  S
O686       Cr702   1.985   1_556  S
O687       Cr702   2.024   1_556  S
O687        C688   1.268       .  A
C688        O689   1.258       .  A
C688       C3611   1.475       .  S
O689       Cr703   1.975       .  S
O690       Cr703   2.017       .  S
O690        C691   1.268       .  A
C691       C3291   1.485       .  S
O692       Cr701   2.038       .  S
O692        C700   1.270       .  A
O693       Cr701   1.996   1_554  S
O693        C694   1.265       .  A
C694        O695   1.266       .  A
C694       C3307   1.477       .  S
O695       Cr702   2.018       .  S
O696       Cr702   1.981       .  S
O696        C697   1.262       .  A
C697        O698   1.268   1_554  A
C697       C3627   1.478       .  S
O698       Cr703   2.018       .  S
O699       Cr703   1.967       .  S
O699        C700   1.256       .  A
C700       C4219   1.480       .  S
Cr701       O704   1.771       .  S
Cr702       O704   1.770   1_554  S
Cr703       O704   1.764       .  S
O705       Cr723   2.030       .  S
O705        C713   1.273       .  A
O706       Cr723   1.994       .  S
O706        C707   1.258       .  A
C707        O708   1.259       .  A
C707       C3240   1.480       .  S
O708       Cr724   1.990       .  S
O709       Cr724   1.984       .  S
O709        C710   1.259       .  A
C710        O711   1.264       .  A
C710       C3560   1.463       .  S
O711       Cr725   2.006       .  S
O712       Cr725   1.954       .  S
O712        C713   1.261       .  A
C713       C3275   1.473       .  S
O714       Cr723   1.998       .  S
O714        C722   1.258       .  A
O715       Cr723   2.032       .  S
O715        C716   1.273       .  A
C716        O717   1.259       .  A
C716       C3256   1.473   1_554  S
O717       Cr724   1.952       .  S
O718       Cr724   2.004       .  S
O718        C719   1.263       .  A
C719        O720   1.258       .  A
C719       C3480   1.463       .  S
O720       Cr725   1.988       .  S
O721       Cr725   1.982       .  S
O721        C722   1.256       .  A
C722       C4395   1.476       .  S
Cr723       O726   1.791       .  S
Cr724       O726   1.779       .  S
Cr725       O726   1.777       .  S
O727       Cr745   2.043       .  S
O727        C735   1.273       .  A
O728       Cr745   1.980       .  S
O728        C729   1.262       .  A
C729        O730   1.268       .  A
C729       C3227   1.481       .  S
O730       Cr746   2.015       .  S
O731       Cr746   1.984       .  S
O731        C732   1.259       .  A
C732        O733   1.262       .  A
C732       C3496   1.459       .  S
O733       Cr747   1.994       .  S
O734       Cr747   1.959       .  S
O734        C735   1.259       .  A
C735       C3259   1.474       .  S
O736       Cr745   1.992       .  S
O736        C744   1.258       .  A
O737       Cr745   2.028       .  S
O737        C738   1.267       .  A
C738        O739   1.255       .  A
C738       C3272   1.469       .  S
O739       Cr746   1.954       .  S
O740       Cr746   2.008       .  S
O740        C741   1.267       .  A
C741        O742   1.260       .  A
C741       C3515   1.456       .  S
O742       Cr747   1.977       .  S
O743       Cr747   2.003       .  S
O743        C744   1.263       .  A
C744       C4379   1.475       .  S
Cr745       O748   1.780       .  S
Cr746       O748   1.771       .  S
Cr747       O748   1.765       .  S
O749       Cr767   1.984       .  S
O749        C757   1.261       .  A
O750       Cr767   2.036       .  S
O750        C751   1.273       .  A
C751        O752   1.262       .  A
C751       C3243   1.482       .  S
O752       Cr768   1.973       .  S
O753       Cr768   2.010       .  S
O753        C754   1.264       .  A
C754        O755   1.261       .  A
C754       C3371   1.476       .  S
O755       Cr769   1.989       .  S
O756       Cr769   2.007       .  S
O756        C757   1.265       .  A
C757       C3192   1.469   1_554  S
O758       Cr767   2.034       .  S
O758        C766   1.270       .  A
O759       Cr767   1.988       .  S
O759        C760   1.260       .  A
C760        O761   1.263       .  A
C760       C3211   1.470       .  S
O761       Cr768   2.004       .  S
O762       Cr768   1.980       .  S
O762        C763   1.262       .  A
C763        O764   1.266       .  A
C763       C3416   1.466       .  S
O764       Cr769   2.009       .  S
O765       Cr769   1.968       .  S
O765        C766   1.259       .  A
C766       C3179   1.482       .  S
Cr767       O770   1.772       .  S
Cr768       O770   1.768       .  S
Cr769       O770   1.769       .  S
O771       Cr789   1.983       .  S
O771        C779   1.261       .  A
O772       Cr789   2.020       .  S
O772        C773   1.269       .  A
C773        O774   1.263       .  A
C773       C3224   1.482       .  S
O774       Cr790   1.991       .  S
O775       Cr790   2.015       .  S
O775        C776   1.266       .  A
C776        O777   1.258       .  A
C776       C3464   1.468       .  S
O777       Cr791   1.978       .  S
O778       Cr791   2.009       .  S
O778        C779   1.264       .  A
C779       C3208   1.465       .  S
O780       Cr789   2.022       .  S
O780        C788   1.267       .  A
O781       Cr789   1.982       .  S
O781        C782   1.260       .  A
C782        O783   1.267       .  A
C782       C3195   1.470       .  S
O783       Cr790   2.018       .  S
O784       Cr790   1.989       .  S
O784        C785   1.264       .  A
C785        O786   1.267       .  A
C785       C3355   1.477       .  S
O786       Cr791   2.015       .  S
O787       Cr791   1.962       .  S
O787        C788   1.259       .  A
C788       C3160   1.472       .  S
Cr789       O792   1.768       .  S
Cr790       O792   1.769       .  S
Cr791       O792   1.764       .  S
O793       Cr811   2.031       .  S
O793        C801   1.276       .  A
O794       Cr811   1.986       .  S
O794        C795   1.257       .  A
C795        O796   1.257       .  A
C795       C3099   1.472       .  S
O796       Cr812   1.980       .  S
O797       Cr812   1.994       .  S
O797        C798   1.256       .  A
C798        O799   1.257       .  A
C798       C3144   1.472       .  S
O799       Cr813   2.002       .  S
O800       Cr813   1.956       .  S
O800        C801   1.265       .  A
C801       C3128   1.469       .  S
O802       Cr811   1.986       .  S
O802        C810   1.252       .  A
O803       Cr811   2.018       .  S
O803        C804   1.269       .  A
C804        O805   1.260       .  A
C804       C3112   1.481       .  S
O805       Cr812   1.964       .  S
O806       Cr812   2.005       .  S
O806        C807   1.267       .  A
C807        O808   1.260       .  A
C807       C3083   1.451       .  S
O808       Cr813   1.972       .  S
O809       Cr813   1.983       .  S
O809        C810   1.253       .  A
C810       C3064   1.470       .  S
Cr811       O814   1.799       .  S
Cr812       O814   1.789       .  S
Cr813       O814   1.785       .  S
O815       Cr833   2.032       .  S
O815        C823   1.270       .  A
O816       Cr833   1.985       .  S
O816        C817   1.261       .  A
C817        O818   1.266       .  A
C817       C3035   1.481       .  S
O818       Cr834   2.011       .  S
O819       Cr834   1.991       .  S
O819        C820   1.260       .  A
C820        O821   1.261       .  A
C820       C3048   1.462       .  S
O821       Cr835   1.993       .  S
O822       Cr835   1.964       .  S
O822        C823   1.259       .  A
C823       C3115   1.472       .  S
O824       Cr833   1.992       .  S
O824        C832   1.260       .  A
O825       Cr833   2.030       .  S
O825        C826   1.268       .  A
C826        O827   1.256       .  A
C826       C3131   1.469       .  S
O827       Cr834   1.957       .  S
O828       Cr834   2.005       .  S
O828        C829   1.266       .  A
C829        O830   1.261       .  A
C829       C3019   1.462       .  S
O830       Cr835   1.982       .  S
O831       Cr835   2.000       .  S
O831        C832   1.263       .  A
C832       C3003   1.476       .  S
Cr833       O836   1.786       .  S
Cr834       O836   1.772       .  S
Cr835       O836   1.769       .  S
O837       Cr855   2.027       .  S
O837        C845   1.268       .  A
O838       Cr855   1.973       .  S
O838        C839   1.258       .  A
C839        O840   1.266       .  A
C839       C3096   1.474       .  S
O840       Cr856   2.013       .  S
O841       Cr856   1.987       .  S
O841        C842   1.262       .  A
C842        O843   1.265       .  A
C842       C2987   1.467       .  S
O843       Cr857   2.004       .  S
O844       Cr857   1.968       .  S
O844        C845   1.259       .  A
C845       C2968   1.469       .  S
O846       Cr855   1.976       .  S
O846        C854   1.258       .  A
O847       Cr855   2.028       .  S
O847        C848   1.268       .  A
C848        O849   1.258       .  A
C848       C2952   1.470       .  S
O849       Cr856   1.966       .  S
O850       Cr856   2.002       .  S
O850        C851   1.264       .  A
C851        O852   1.263       .  A
C851       C2936   1.471       .  S
O852       Cr857   2.000       .  S
O853       Cr857   2.005       .  S
O853        C854   1.265       .  A
C854       C3800   1.472       .  S
Cr855       O858   1.788       .  S
Cr856       O858   1.773       .  S
Cr857       O858   1.771       .  S
O859       Cr877   2.006       .  S
O859        C867   1.266       .  A
O860       Cr877   2.034       .  S
O860        C861   1.272       .  A
C861        O862   1.263       .  A
C861       C3032   1.480       .  S
O862       Cr878   1.985       .  S
O863       Cr878   2.015       .  S
O863        C864   1.264       .  A
C864        O865   1.257       .  A
C864       C2920   1.471       .  S
O865       Cr879   1.977       .  S
O866       Cr879   1.991       .  S
O866        C867   1.263       .  A
C867       C2955   1.478       .  S
O868       Cr877   2.036       .  S
O868        C876   1.271       .  A
O869       Cr877   2.006       .  S
O869        C870   1.265       .  A
C870        O871   1.264       .  A
C870       C2971   1.477       .  S
O871       Cr878   1.995       .  S
O872       Cr878   1.987       .  S
O872        C873   1.263       .  A
C873        O874   1.266       .  A
C873       C2904   1.473       .  S
O874       Cr879   2.004       .  S
O875       Cr879   1.964       .  S
O875        C876   1.257       .  A
C876       C3771   1.479       .  S
Cr877       O880   1.776       .  S
Cr878       O880   1.767       .  S
Cr879       O880   1.761       .  S
O881       Cr899   2.020       .  S
O881        C889   1.270       .  A
O882       Cr899   2.005       .  S
O882        C883   1.266       .  A
C883        O884   1.264       .  A
C883       C2856   1.483       .  S
O884       Cr900   1.993       .  S
O885       Cr900   1.992       .  S
O885        C886   1.256       .  A
C886        O887   1.255       .  A
C886       C2984   1.467       .  S
O887       Cr901   1.991       .  S
O888       Cr901   1.964       .  S
O888        C889   1.262       .  A
C889       C2888   1.454       .  S
O890       Cr899   2.018       .  S
O890        C898   1.262       .  A
O891       Cr899   2.009       .  S
O891        C892   1.264   1_554  A
C892        O893   1.258       .  A
C892       C2872   1.476       .  S
O893       Cr900   1.964   1_556  S
O894       Cr900   2.007       .  S
O894        C895   1.269       .  A
C895        O896   1.266       .  A
C895       C2907   1.462       .  S
O896       Cr901   1.986       .  S
O897       Cr901   1.988       .  S
O897        C898   1.258       .  A
C898       C3995   1.485       .  S
Cr899       O902   1.793       .  S
Cr900       O902   1.777       .  S
Cr901       O902   1.777       .  S
O903       Cr921   2.039       .  S
O903        C911   1.276       .  A
O904       Cr921   1.995       .  S
O904        C905   1.263       .  A
C905        O906   1.259       .  A
C905       C2840   1.474       .  S
O906       Cr922   1.979       .  S
O907       Cr922   1.998       .  S
O907        C908   1.255       .  A
C908        O909   1.253       .  A
C908       C2923   1.462       .  S
O909       Cr923   1.983       .  S
O910       Cr923   1.962       .  S
O910        C911   1.264       .  A
C911       C2875   1.474       .  S
O912       Cr921   2.008       .  S
O912        C920   1.257       .  A
O913       Cr921   2.005       .  S
O913        C914   1.264       .  A
C914        O915   1.257       .  A
C914       C2891   1.456       .  S
O915       Cr922   1.954       .  S
O916       Cr922   2.009       .  S
O916        C917   1.272       .  A
C917        O918   1.269       .  A
C917       C2939   1.476       .  S
O918       Cr923   1.990       .  S
O919       Cr923   1.984       .  S
O919        C920   1.254       .  A
C920       C3931   1.481       .  S
Cr921       O924   1.791       .  S
Cr922       O924   1.775       .  S
Cr923       O924   1.776       .  S
O925       Cr943   2.035       .  S
O925        C933   1.272       .  A
O926       Cr943   1.984       .  S
O926        C927   1.262       .  A
C927        O928   1.268       .  A
C927       C2859   1.481       .  S
O928       Cr944   2.014       .  S
O929       Cr944   1.986       .  S
O929        C930   1.260       .  A
C930        O931   1.262       .  A
C930       C2824   1.463       .  S
O931       Cr945   1.998       .  S
O932       Cr945   1.969       .  S
O932        C933   1.259       .  A
C933       C2792   1.470   1_554  S
O934       Cr943   2.001       .  S
O934        C942   1.261       .  A
O935       Cr943   2.026       .  S
O935        C936   1.267       .  A
C936        O937   1.257       .  A
C936       C2808   1.473       .  S
O937       Cr944   1.970       .  S
O938       Cr944   2.005       .  S
O938        C939   1.266       .  A
C939        O940   1.262       .  A
C939       C2776   1.465       .  S
O940       Cr945   1.991       .  S
O941       Cr945   1.997       .  S
O941        C942   1.263       .  A
C942       C4472   1.481       .  S
Cr943       O946   1.781       .  S
Cr944       O946   1.771       .  S
Cr945       O946   1.767       .  S
O947       Cr965   2.002       .  S
O947        C955   1.266       .  A
O948       Cr965   2.012       .  S
O948        C949   1.266       .  A
C949        O950   1.260       .  A
C949       C2843   1.472       .  S
O950       Cr966   1.978       .  S
O951       Cr966   2.017       .  S
O951        C952   1.266       .  A
C952        O953   1.258       .  A
C952       C2760   1.474       .  S
O953       Cr967   1.975       .  S
O954       Cr967   1.999       .  S
O954        C955   1.266       .  A
C955       C2811   1.478       .  S
O956       Cr965   2.022       .  S
O956        C964   1.266       .  A
O957       Cr965   1.999       .  S
O957        C958   1.267       .  A
C958        O959   1.268       .  A
C958       C2795   1.478       .  S
O959       Cr966   2.008       .  S
O960       Cr966   1.970       .  S
O960        C961   1.259       .  A
C961        O962   1.265       .  A
C961       C2744   1.469       .  S
O962       Cr967   2.006       .  S
O963       Cr967   1.979       .  S
O963        C964   1.260       .  A
C964       C4443   1.479       .  S
Cr965       O968   1.772       .  S
Cr966       O968   1.769       .  S
Cr967       O968   1.762       .  S
O969       Cr987   2.035       .  S
O969        C977   1.277       .  A
O970       Cr987   2.006       .  S
O970        C971   1.264       .  A
C971        O972   1.261       .  A
C971       C2699   1.488       .  S
O972       Cr988   1.987       .  S
O973       Cr988   2.003       .  S
O973        C974   1.255       .  A
C974        O975   1.250       .  A
C974       C2763   1.465       .  S
O975       Cr989   1.980       .  S
O976       Cr989   1.973       .  S
O976        C977   1.268       .  A
C977       C2712   1.478       .  S
O978       Cr987   2.006       .  S
O978        C986   1.255       .  A
O979       Cr987   2.005       .  S
O979        C980   1.264       .  A
C980        O981   1.258       .  A
C980       C2731   1.466       .  S
O981       Cr988   1.966       .  S
O982       Cr988   2.005       .  S
O982        C983   1.274       .  A
C983        O984   1.271       .  A
C983       C2779   1.474       .  S
O984       Cr989   1.992       .  S
O985       Cr989   1.987       .  S
O985        C986   1.253       .  A
C986       C4587   1.481       .  S
Cr987       O990   1.790       .  S
Cr988       O990   1.777       .  S
Cr989       O990   1.783       .  S
O991      Cr1009   2.033       .  S
O991        C999   1.272       .  A
O992      Cr1009   1.995       .  S
O992        C993   1.263       .  A
C993        O994   1.264       .  A
C993       C2680   1.483       .  S
O994      Cr1010   1.997       .  S
O995      Cr1010   1.990       .  S
O995        C996   1.258       .  A
C996        O997   1.257       .  A
C996       C2827   1.465       .  S
O997      Cr1011   1.990       .  S
O998      Cr1011   1.968       .  S
O998        C999   1.262       .  A
C999       C2728   1.467   1_556  S
O1000     Cr1009   2.012       .  S
O1000      C1008   1.263       .  A
O1001     Cr1009   2.033       .  S
O1001      C1002   1.270       .  A
C1002      O1003   1.257       .  A
C1002      C2715   1.483       .  S
O1003     Cr1010   1.961       .  S
O1004     Cr1010   2.001       .  S
O1004      C1005   1.266       .  A
C1005      O1006   1.264       .  A
C1005      C2747   1.459       .  S
O1006     Cr1011   1.987       .  S
O1007     Cr1011   1.983       .  S
O1007      C1008   1.258       .  A
C1008      C4539   1.480       .  S
Cr1009     O1012   1.789       .  S
Cr1010     O1012   1.778       .  S
Cr1011     O1012   1.773       .  S
O1013     Cr1031   1.987       .  S
O1013      C1021   1.263       .  A
O1014     Cr1031   2.038       .  S
O1014      C1015   1.274       .  A
C1015      O1016   1.267       .  A
C1015      C2696   1.488       .  S
O1016     Cr1032   1.986       .  S
O1017     Cr1032   2.022       .  S
O1017      C1018   1.265       .  A
C1018      O1019   1.258       .  A
C1018      C3147   1.477       .  S
O1019     Cr1033   1.980       .  S
O1020     Cr1033   2.009       .  S
O1020      C1021   1.266       .  A
C1021      C2664   1.471       .  S
O1022     Cr1031   2.035       .  S
O1022      C1030   1.270       .  A
O1023     Cr1031   1.992       .  S
O1023      C1024   1.261       .  A
C1024      O1025   1.263       .  A
C1024      C2648   1.467       .  S
O1025     Cr1032   2.003       .  S
O1026     Cr1032   1.980       .  S
O1026      C1027   1.262       .  A
C1027      O1028   1.269       .  A
C1027      C3016   1.471       .  S
O1028     Cr1033   2.014       .  S
O1029     Cr1033   1.964       .  S
O1029      C1030   1.257       .  A
C1030      C2632   1.483       .  S
Cr1031     O1034   1.770       .  S
Cr1032     O1034   1.769       .  S
Cr1033     O1034   1.766       .  S
O1035     Cr1053   1.981       .  S
O1035      C1043   1.260       .  A
O1036     Cr1053   2.025       .  S
O1036      C1037   1.270       .  A
C1037      O1038   1.262       .  A
C1037      C2683   1.480       .  S
O1038     Cr1054   1.979       .  S
O1039     Cr1054   2.011       .  S
O1039      C1040   1.266       .  A
C1040      O1041   1.263       .  A
C1040      C3051   1.473       .  S
O1041     Cr1055   1.986       .  S
O1042     Cr1055   2.002       .  S
O1042      C1043   1.264       .  A
C1043      C2651   1.464       .  S
O1044     Cr1053   2.026       .  S
O1044      C1052   1.268       .  A
O1045     Cr1053   1.985   1_554  S
O1045      C1046   1.260       .  A
C1046      O1047   1.265       .  A
C1046      C2667   1.470       .  S
O1047     Cr1054   2.013   1_554  S
O1048     Cr1054   1.981   1_554  S
O1048      C1049   1.263   1_554  A
C1049      O1050   1.263       .  A
C1049      C3080   1.464   1_556  S
O1050     Cr1055   1.999       .  S
O1051     Cr1055   1.970       .  S
O1051      C1052   1.259       .  A
C1052      C2616   1.475       .  S
Cr1053     O1056   1.768       .  S
Cr1054     O1056   1.763       .  S
Cr1055     O1056   1.764       .  S
O1057     Cr1075   2.038       .  S
O1057      C1065   1.273       .  A
O1058     Cr1075   1.986       .  S
O1058      C1059   1.263       .  A
C1059      O1060   1.269       .  A
C1059      C2555   1.481       .  S
O1060     Cr1076   2.009       .  S
O1061     Cr1076   1.995       .  S
O1061      C1062   1.258       .  A
C1062      O1063   1.256       .  A
C1062      C2600   1.462       .  S
O1063     Cr1077   1.981       .  S
O1064     Cr1077   1.968       .  S
O1064      C1065   1.261       .  A
C1065      C2571   1.470   1_554  S
O1066     Cr1075   2.006       .  S
O1066      C1074   1.261       .  A
O1067     Cr1075   2.022       .  S
O1067      C1068   1.265       .  A
C1068      O1069   1.254       .  A
C1068      C2587   1.469       .  S
O1069     Cr1076   1.963       .  S
O1070     Cr1076   2.005       .  S
O1070      C1071   1.269       .  A
C1071      O1072   1.264       .  A
C1071      C2539   1.462       .  S
O1072     Cr1077   1.980       .  S
O1073     Cr1077   1.991       .  S
O1073      C1074   1.259       .  A
C1074      C3883   1.477       .  S
Cr1075     O1078   1.784       .  S
Cr1076     O1078   1.771       .  S
Cr1077     O1078   1.772       .  S
O1079     Cr1097   1.995       .  S
O1079      C1087   1.265       .  A
O1080     Cr1097   2.036       .  S
O1080      C1081   1.273       .  A
C1081      O1082   1.262       .  A
C1081      C2504   1.485       .  S
O1082     Cr1098   1.981       .  S
O1083     Cr1098   2.012       .  S
O1083      C1084   1.264       .  A
C1084      O1085   1.259       .  A
C1084      C2520   1.470       .  S
O1085     Cr1099   1.981       .  S
O1086     Cr1099   2.001       .  S
O1086      C1087   1.266       .  A
C1087      C2584   1.476       .  S
O1088     Cr1097   2.032       .  S
O1088      C1096   1.270       .  A
O1089     Cr1097   1.996       .  S
O1089      C1090   1.263       .  A
C1090      O1091   1.264       .  A
C1090      C2568   1.477       .  S
O1091     Cr1098   2.001       .  S
O1092     Cr1098   1.976       .  S
O1092      C1093   1.259       .  A
C1093      O1094   1.268       .  A
C1093      C2488   1.470       .  S
O1094     Cr1099   2.015       .  S
O1095     Cr1099   1.976       .  S
O1095      C1096   1.260       .  A
C1096      C3864   1.485       .  S
Cr1097     O1100   1.772       .  S
Cr1098     O1100   1.768       .  S
Cr1099     O1100   1.765       .  S
O1101     Cr1119   1.997       .  S
O1101      C1109   1.266       .  A
O1102     Cr1119   2.024       .  S
O1102      C1103   1.268       .  A
C1103      O1104   1.263       .  A
C1103      C2552   1.480       .  S
O1104     Cr1120   1.986       .  S
O1105     Cr1120   2.019       .  S
O1105      C1106   1.266       .  A
C1106      O1107   1.259       .  A
C1106      C2472   1.473       .  S
O1107     Cr1121   1.980       .  S
O1108     Cr1121   1.994       .  S
O1108      C1109   1.265       .  A
C1109      C2456   1.473       .  S
O1110     Cr1119   2.024       .  S
O1110      C1118   1.267       .  A
O1111     Cr1119   1.995       .  S
O1111      C1112   1.265   1_554  A
C1112      O1113   1.267       .  A
C1112      C2440   1.476       .  S
O1113     Cr1120   2.003   1_556  S
O1114     Cr1120   1.981   1_556  S
O1114      C1115   1.260   1_556  A
C1115      O1116   1.265       .  A
C1115      C2427   1.467   1_554  S
O1116     Cr1121   2.000       .  S
O1117     Cr1121   1.978       .  S
O1117      C1118   1.259       .  A
C1118      C2411   1.477       .  S
Cr1119     O1122   1.774       .  S
Cr1120     O1122   1.765       .  S
Cr1121     O1122   1.761       .  S
O1123     Cr1141   2.029       .  S
O1123      C1131   1.269       .  A
O1124     Cr1141   1.987       .  S
O1124      C1125   1.262       .  A
C1125      O1126   1.267       .  A
C1125      C2507   1.483       .  S
O1126     Cr1142   2.012       .  S
O1127     Cr1142   1.985       .  S
O1127      C1128   1.258       .  A
C1128      O1129   1.263       .  A
C1128      C2392   1.464       .  S
O1129     Cr1143   1.999       .  S
O1130     Cr1143   1.963       .  S
O1130      C1131   1.258       .  A
C1131      C2443   1.466       .  S
O1132     Cr1141   1.992       .  S
O1132      C1140   1.261       .  A
O1133     Cr1141   2.030       .  S
O1133      C1134   1.268       .  A
C1134      O1135   1.255       .  A
C1134      C2459   1.468       .  S
O1135     Cr1142   1.956       .  S
O1136     Cr1142   2.006       .  S
O1136      C1137   1.266       .  A
C1137      O1138   1.261       .  A
C1137      C2376   1.464       .  S
O1138     Cr1143   1.981       .  S
O1139     Cr1143   2.005       .  S
O1139      C1140   1.265       .  A
C1140      C2363   1.479       .  S
Cr1141     O1144   1.788       .  S
Cr1142     O1144   1.772       .  S
Cr1143     O1144   1.773       .  S
O1145     Cr1163   2.035       .  S
O1145      C1153   1.272       .  A
O1146     Cr1163   1.988       .  S
O1146      C1147   1.263       .  A
C1147      O1148   1.268       .  A
C1147      C2315   1.481       .  S
O1148     Cr1164   2.009       .  S
O1149     Cr1164   1.986       .  S
O1149      C1150   1.258       .  A
C1150      O1151   1.259       .  A
C1150      C2523   1.459       .  S
O1151     Cr1165   1.987       .  S
O1152     Cr1165   1.965       .  S
O1152      C1153   1.261       .  A
C1153      C2331   1.475       .  S
O1154     Cr1163   1.996       .  S
O1154      C1162   1.260       .  A
O1155     Cr1163   2.025       .  S
O1155      C1156   1.266       .  A
C1156      O1157   1.253       .  A
C1156      C2344   1.464       .  S
O1157     Cr1164   1.954       .  S
O1158     Cr1164   2.007       .  S
O1158      C1159   1.267       .  A
C1159      O1160   1.262       .  A
C1159      C2536   1.462       .  S
O1160     Cr1165   1.981       .  S
O1161     Cr1165   1.996       .  S
O1161      C1162   1.261       .  A
C1162      C4139   1.475       .  S
Cr1163     O1166   1.786       .  S
Cr1164     O1166   1.773       .  S
Cr1165     O1166   1.770       .  S
O1167     Cr1185   1.983       .  S
O1167      C1175   1.262       .  A
O1168     Cr1185   2.042       .  S
O1168      C1169   1.274       .  A
C1169      O1170   1.259       .  A
C1169      C2299   1.479       .  S
O1170     Cr1186   1.965       .  S
O1171     Cr1186   2.012       .  S
O1171      C1172   1.265       .  A
C1172      O1173   1.257       .  A
C1172      C2603   1.470       .  S
O1173     Cr1187   1.974       .  S
O1174     Cr1187   2.006       .  S
O1174      C1175   1.267       .  A
C1175      C2347   1.473   1_556  S
O1176     Cr1185   2.040       .  S
O1176      C1184   1.272       .  A
O1177     Cr1185   1.998       .  S
O1177      C1178   1.263       .  A
C1178      O1179   1.263       .  A
C1178      C2328   1.472       .  S
O1179     Cr1186   1.994       .  S
O1180     Cr1186   1.971       .  S
O1180      C1181   1.258       .  A
C1181      O1182   1.268       .  A
C1181      C2491   1.464       .  S
O1182     Cr1187   2.022       .  S
O1183     Cr1187   1.967       .  S
O1183      C1184   1.258       .  A
C1184      C4091   1.482       .  S
Cr1185     O1188   1.774       .  S
Cr1186     O1188   1.760       .  S
Cr1187     O1188   1.761       .  S
O1189     Cr1207   1.999       .  S
O1189      C1197   1.265       .  A
O1190     Cr1207   2.021       .  S
O1190      C1191   1.269       .  A
C1191      O1192   1.265       .  A
C1191      C2312   1.483       .  S
O1192     Cr1208   1.992       .  S
O1193     Cr1208   2.004       .  S
O1193      C1194   1.261       .  A
C1194      O1195   1.257       .  A
C1194      C2280   1.462       .  S
O1195     Cr1209   1.980       .  S
O1196     Cr1209   2.001       .  S
O1196      C1197   1.267       .  A
C1197      C2264   1.480       .  S
O1198     Cr1207   2.025       .  S
O1198      C1206   1.267       .  A
O1199     Cr1207   1.998       .  S
O1199      C1200   1.264       .  A
C1200      O1201   1.263       .  A
C1200      C2248   1.476       .  S
O1201     Cr1208   1.997       .  S
O1202     Cr1208   1.981       .  S
O1202      C1203   1.263       .  A
C1203      O1204   1.268       .  A
C1203      C2232   1.477       .  S
O1204     Cr1209   2.016       .  S
O1205     Cr1209   1.978       .  S
O1205      C1206   1.259       .  A
C1206      C4699   1.485       .  S
Cr1207     O1210   1.776       .  S
Cr1208     O1210   1.774       .  S
Cr1209     O1210   1.766       .  S
O1211     Cr1229   2.034       .  S
O1211      C1219   1.272       .  A
O1212     Cr1229   1.984       .  S
O1212      C1213   1.260       .  A
C1213      O1214   1.265       .  A
C1213      C2296   1.479       .  S
O1214     Cr1230   2.006       .  S
O1215     Cr1230   1.989       .  S
O1215      C1216   1.260       .  A
C1216      O1217   1.263       .  A
C1216      C2216   1.466       .  S
O1217     Cr1231   2.002       .  S
O1218     Cr1231   1.963       .  S
O1218      C1219   1.259       .  A
C1219      C2251   1.469       .  S
O1220     Cr1229   2.003       .  S
O1220      C1228   1.261       .  A
O1221     Cr1229   2.033   1_554  S
O1221      C1222   1.270       .  A
C1222      O1223   1.257       .  A
C1222      C2267   1.473       .  S
O1223     Cr1230   1.957   1_554  S
O1224     Cr1230   2.006       .  S
O1224      C1225   1.266       .  A
C1225      O1226   1.261       .  A
C1225      C2203   1.461   1_556  S
O1226     Cr1231   1.986       .  S
O1227     Cr1231   1.998       .  S
O1227      C1228   1.262       .  A
C1228      C4664   1.482       .  S
Cr1229     O1232   1.786       .  S
Cr1230     O1232   1.772       .  S
Cr1231     O1232   1.769       .  S
O1233     Cr1251   1.988       .  S
O1233      C1241   1.261       .  A
O1234     Cr1251   2.019       .  S
O1234      C1235   1.269       .  A
C1235      O1236   1.263       .  A
C1235      C2152   1.479       .  S
O1236     Cr1252   1.983       .  S
O1237     Cr1252   2.019       .  S
O1237      C1238   1.268       .  A
C1238      O1239   1.260       .  A
C1238      C2475   1.471       .  S
O1239     Cr1253   1.980       .  S
O1240     Cr1253   2.007       .  S
O1240      C1241   1.264       .  A
C1241      C2187   1.468       .  S
O1242     Cr1251   2.028       .  S
O1242      C1250   1.268       .  A
O1243     Cr1251   1.988       .  S
O1243      C1244   1.262       .  A
C1244      O1245   1.266       .  A
C1244      C2171   1.470       .  S
O1245     Cr1252   2.014       .  S
O1246     Cr1252   1.994       .  S
O1246      C1247   1.264       .  A
C1247      O1248   1.264       .  A
C1247      C2379   1.472       .  S
O1248     Cr1253   2.005       .  S
O1249     Cr1253   1.962       .  S
O1249      C1250   1.257       .  A
C1250      C2136   1.471       .  S
Cr1251     O1254   1.769       .  S
Cr1252     O1254   1.766       .  S
Cr1253     O1254   1.764       .  S
O1255     Cr1273   1.976       .  S
O1255      C1263   1.260       .  A
O1256     Cr1273   2.043       .  S
O1256      C1257   1.275       .  A
C1257      O1258   1.261       .  A
C1257      C2120   1.485       .  S
O1258     Cr1274   1.974       .  S
O1259     Cr1274   2.017       .  S
O1259      C1260   1.265       .  A
C1260      O1261   1.260       .  A
C1260      C2395   1.472       .  S
O1261     Cr1275   1.979       .  S
O1262     Cr1275   2.019       .  S
O1262      C1263   1.268       .  A
C1263      C2168   1.472       .  S
O1264     Cr1273   2.044       .  S
O1264      C1272   1.272       .  A
O1265     Cr1273   1.986       .  S
O1265      C1266   1.260       .  A
C1266      O1267   1.264       .  A
C1266      C2184   1.472       .  S
O1267     Cr1274   2.010       .  S
O1268     Cr1274   1.973       .  S
O1268      C1269   1.260       .  A
C1269      O1270   1.268       .  A
C1269      C2424   1.465       .  S
O1270     Cr1275   2.019       .  S
O1271     Cr1275   1.970       .  S
O1271      C1272   1.258       .  A
C1272      C2107   1.485       .  S
Cr1273     O1276   1.768       .  S
Cr1274     O1276   1.767       .  S
Cr1275     O1276   1.763       .  S
O1277     Cr1295   1.999       .  S
O1277      C1285   1.265       .  A
O1278     Cr1295   2.034       .  S
O1278      C1279   1.273       .  A
C1279      O1280   1.263       .  A
C1279      C2155   1.480       .  S
O1280     Cr1296   1.970       .  S
O1281     Cr1296   2.012       .  S
O1281      C1282   1.264       .  A
C1282      O1283   1.257       .  A
C1282      C2283   1.467       .  S
O1283     Cr1297   1.976       .  S
O1284     Cr1297   1.997       .  S
O1284      C1285   1.265       .  A
C1285      C2088   1.477       .  S
O1286     Cr1295   2.027       .  S
O1286      C1294   1.269       .  A
O1287     Cr1295   2.006       .  S
O1287      C1288   1.264       .  A
C1288      O1289   1.262       .  A
C1288      C2072   1.477       .  S
O1289     Cr1296   1.996       .  S
O1290     Cr1296   1.973       .  S
O1290      C1291   1.260       .  A
C1291      O1292   1.267       .  A
C1291      C2200   1.469       .  S
O1292     Cr1297   2.011       .  S
O1293     Cr1297   1.963       .  S
O1293      C1294   1.256       .  A
C1294      C4955   1.475       .  S
Cr1295     O1298   1.772       .  S
Cr1296     O1298   1.767       .  S
Cr1297     O1298   1.762       .  S
O1299     Cr1317   2.027       .  S
O1299      C1307   1.269       .  A
O1300     Cr1317   1.985       .  S
O1300      C1301   1.261       .  A
C1301      O1302   1.266       .  A
C1301      C2123   1.484       .  S
O1302     Cr1318   2.015       .  S
O1303     Cr1318   1.987       .  S
O1303      C1304   1.261       .  A
C1304      O1305   1.264       .  A
C1304      C2219   1.466       .  S
O1305     Cr1319   2.002       .  S
O1306     Cr1319   1.974       .  S
O1306      C1307   1.261       .  A
C1307      C2075   1.468       .  S
O1308     Cr1317   1.998       .  S
O1308      C1316   1.262       .  A
O1309     Cr1317   2.028       .  S
O1309      C1310   1.268       .  A
C1310      O1311   1.258       .  A
C1310      C2091   1.472       .  S
O1311     Cr1318   1.968       .  S
O1312     Cr1318   2.002       .  S
O1312      C1313   1.264       .  A
C1313      O1314   1.264       .  A
C1313      C2235   1.469       .  S
O1314     Cr1319   1.999       .  S
O1315     Cr1319   2.002       .  S
O1315      C1316   1.264       .  A
C1316      C4888   1.484       .  S
Cr1317     O1320   1.784       .  S
Cr1318     O1320   1.775       .  S
Cr1319     O1320   1.769       .  S
O1321     Cr1339   2.019       .  S
O1321      C1329   1.267       .  A
O1322     Cr1339   1.985       .  S
O1322      C1323   1.259       .  A
C1323      O1324   1.266       .  A
C1323      C2056   1.477       .  S
O1324     Cr1340   2.019       .  S
O1325     Cr1340   1.960       .  S
O1325      C1326   1.262       .  A
C1326      O1327   1.272       .  A
C1326      C2008   1.474       .  S
O1327     Cr1341   2.032       .  S
O1328     Cr1341   1.976       .  S
O1328      C1329   1.259       .  A
C1329      C2043   1.468       .  S
O1330     Cr1339   1.955       .  S
O1330      C1338   1.255       .  A
O1331     Cr1339   2.022       .  S
O1331      C1332   1.271       .  A
C1332      O1333   1.262       .  A
C1332      C1995   1.473       .  S
O1333     Cr1340   1.976       .  S
O1334     Cr1340   2.013       .  S
O1334      C1335   1.263       .  A
C1335      O1336   1.259       .  A
C1335      C2024   1.469       .  S
O1336     Cr1341   1.987       .  S
O1337     Cr1341   2.029       .  S
O1337      C1338   1.269       .  A
C1338      C3067   1.474       .  S
Cr1339     O1342   1.763       .  S
Cr1340     O1342   1.766       .  S
Cr1341     O1342   1.773       .  S
O1343     Cr1361   2.016       .  S
O1343      C1351   1.268       .  A
O1344     Cr1361   1.968       .  S
O1344      C1345   1.256       .  A
C1345      O1346   1.267       .  A
C1345      C1979   1.474       .  S
O1346     Cr1362   2.030       .  S
O1347     Cr1362   1.972       .  S
O1347      C1348   1.262       .  A
C1348      O1349   1.272       .  A
C1348      C1960   1.478       .  S
O1349     Cr1363   2.028       .  S
O1350     Cr1363   1.979       .  S
O1350      C1351   1.261       .  A
C1351      C2027   1.473       .  S
O1352     Cr1361   1.964       .  S
O1352      C1360   1.258       .  A
O1353     Cr1361   2.026       .  S
O1353      C1354   1.270       .  A
C1354      O1355   1.257       .  A
C1354      C1947   1.469       .  S
O1355     Cr1362   1.963       .  S
O1356     Cr1362   2.012       .  S
O1356      C1357   1.266       .  A
C1357      O1358   1.260       .  A
C1357      C2040   1.471       .  S
O1358     Cr1363   1.985       .  S
O1359     Cr1363   2.029       .  S
O1359      C1360   1.269       .  A
C1360      C3000   1.478       .  S
Cr1361     O1364   1.764       .  S
Cr1362     O1364   1.769       .  S
Cr1363     O1364   1.766       .  S
O1365     Cr1383   2.015       .  S
O1365      C1373   1.268       .  A
O1366     Cr1383   1.980       .  S
O1366      C1367   1.261       .  A
C1367      O1368   1.268       .  A
C1367      C1931   1.475       .  S
O1368     Cr1384   2.022       .  S
O1369     Cr1384   1.971       .  S
O1369      C1370   1.261       .  A
C1370      O1371   1.269       .  A
C1370      C2011   1.473       .  S
O1371     Cr1385   2.020       .  S
O1372     Cr1385   1.992       .  S
O1372      C1373   1.265       .  A
C1373      C1915   1.476       .  S
O1374     Cr1383   1.969       .  S
O1374      C1382   1.258       .  A
O1375     Cr1383   2.010       .  S
O1375      C1376   1.267       .  A
C1376      O1377   1.258       .  A
C1376      C1883   1.466       .  S
O1377     Cr1384   1.974       .  S
O1378     Cr1384   2.011       .  S
O1378      C1379   1.265       .  A
C1379      O1380   1.262       .  A
C1379      C1896   1.475       .  S
O1380     Cr1385   1.996       .  S
O1381     Cr1385   2.020       .  S
O1381      C1382   1.265       .  A
C1382      C2139   1.472       .  S
Cr1383     O1386   1.760       .  S
Cr1384     O1386   1.768       .  S
Cr1385     O1386   1.769       .  S
O1387     Cr1405   2.020       .  S
O1387      C1395   1.267       .  A
O1388     Cr1405   1.983       .  S
O1388      C1389   1.259       .  A
C1389      O1390   1.262       .  A
C1389      C1867   1.461       .  S
O1390     Cr1406   1.999       .  S
O1391     Cr1406   1.968       .  S
O1391      C1392   1.260       .  A
C1392      O1393   1.274       .  A
C1392      C1963   1.479       .  S
O1393     Cr1407   2.036       .  S
O1394     Cr1407   1.987       .  S
O1394      C1395   1.262       .  A
C1395      C1899   1.479       .  S
O1396     Cr1405   1.970       .  S
O1396      C1404   1.259       .  A
O1397     Cr1405   2.019       .  S
O1397      C1398   1.269       .  A
C1398      O1399   1.262       .  A
C1398      C1851   1.470       .  S
O1399     Cr1406   1.978       .  S
O1400     Cr1406   2.002       .  S
O1400      C1401   1.261       .  A
C1401      O1402   1.262       .  A
C1401      C1912   1.473       .  S
O1402     Cr1407   2.001       .  S
O1403     Cr1407   2.032       .  S
O1403      C1404   1.271       .  A
C1404      C2104   1.483       .  S
Cr1405     O1408   1.768       .  S
Cr1406     O1408   1.766       .  S
Cr1407     O1408   1.767       .  S
O1409     Cr1427   1.959   1_556  S
O1409      C1417   1.260       .  A
O1410     Cr1427   1.997       .  S
O1410      C1411   1.261       .  A
C1411      O1412   1.258       .  A
C1411      C1835   1.460       .  S
O1412     Cr1428   1.982       .  S
O1413     Cr1428   1.998       .  S
O1413      C1414   1.263       .  A
C1414      O1415   1.261       .  A
C1414      C1771   1.479       .  S
O1415     Cr1429   1.989       .  S
O1416     Cr1429   2.032       .  S
O1416      C1417   1.273   1_554  A
C1417      C1803   1.463       .  S
O1418     Cr1427   1.993       .  S
O1418      C1426   1.260       .  A
O1419     Cr1427   1.982       .  S
O1419      C1420   1.261       .  A
C1420      O1421   1.266       .  A
C1420      C1787   1.456       .  S
O1421     Cr1428   2.003       .  S
O1422     Cr1428   1.942       .  S
O1422      C1423   1.255       .  A
C1423      O1424   1.270       .  A
C1423      C1816   1.473       .  S
O1424     Cr1429   2.031       .  S
O1425     Cr1429   2.000       .  S
O1425      C1426   1.259       .  A
C1426      C3176   1.479       .  S
Cr1427     O1430   1.770       .  S
Cr1428     O1430   1.772       .  S
Cr1429     O1430   1.784       .  S
O1431     Cr1449   1.951       .  S
O1431      C1439   1.261       .  A
O1432     Cr1449   1.990       .  S
O1432      C1433   1.259       .  A
C1433      O1434   1.261       .  A
C1433      C1752   1.463       .  S
O1434     Cr1450   1.999       .  S
O1435     Cr1450   1.996       .  S
O1435      C1436   1.262       .  A
C1436      O1437   1.258       .  A
C1436      C1720   1.478       .  S
O1437     Cr1451   1.984       .  S
O1438     Cr1451   2.034       .  S
O1438      C1439   1.273       .  A
C1439      C1819   1.475       .  S
O1440     Cr1449   1.980       .  S
O1440      C1448   1.256       .  A
O1441     Cr1449   1.980       .  S
O1441      C1442   1.261       .  A
C1442      O1443   1.268       .  A
C1442      C1736   1.464       .  S
O1443     Cr1450   2.014       .  S
O1444     Cr1450   1.958       .  S
O1444      C1445   1.259       .  A
C1445      O1446   1.271       .  A
C1445      C1800   1.466       .  S
O1446     Cr1451   2.021       .  S
O1447     Cr1451   1.984       .  S
O1447      C1448   1.254       .  A
C1448      C3163   1.463       .  S
Cr1449     O1452   1.772       .  S
Cr1450     O1452   1.776       .  S
Cr1451     O1452   1.787       .  S
O1453     Cr1471   2.019       .  S
O1453      C1461   1.269       .  A
O1454     Cr1471   1.983       .  S
O1454      C1455   1.258       .  A
C1455      O1456   1.265       .  A
C1455      C1928   1.473       .  S
O1456     Cr1472   2.017       .  S
O1457     Cr1472   1.980       .  S
O1457      C1458   1.264       .  A
C1458      O1459   1.271       .  A
C1458      C1768   1.477       .  S
O1459     Cr1473   2.028       .  S
O1460     Cr1473   1.976       .  S
O1460      C1461   1.260       .  A
C1461      C1707   1.469       .  S
O1462     Cr1471   1.969       .  S
O1462      C1470   1.256       .  A
O1463     Cr1471   2.017       .  S
O1463      C1464   1.270   1_554  A
C1464      O1465   1.261       .  A
C1464      C1848   1.470       .  S
O1465     Cr1472   1.980   1_556  S
O1466     Cr1472   2.009   1_556  S
O1466      C1467   1.264       .  A
C1467      O1468   1.262       .  A
C1467      C1688   1.470       .  S
O1468     Cr1473   1.991   1_556  S
O1469     Cr1473   2.029       .  S
O1469      C1470   1.268       .  A
C1470      C2408   1.476       .  S
Cr1471     O1474   1.761       .  S
Cr1472     O1474   1.766       .  S
Cr1473     O1474   1.768       .  S
O1475     Cr1493   2.006       .  S
O1475      C1483   1.264       .  A
O1476     Cr1493   1.974       .  S
O1476      C1477   1.257       .  A
C1477      O1478   1.263       .  A
C1477      C1864   1.465       .  S
O1478     Cr1494   2.013       .  S
O1479     Cr1494   1.970       .  S
O1479      C1480   1.261       .  A
C1480      O1481   1.272       .  A
C1480      C1723   1.474       .  S
O1481     Cr1495   2.036       .  S
O1482     Cr1495   1.990       .  S
O1482      C1483   1.261       .  A
C1483      C1691   1.471       .  S
O1484     Cr1493   1.961       .  S
O1484      C1492   1.257       .  A
O1485     Cr1493   2.009       .  S
O1485      C1486   1.268       .  A
C1486      O1487   1.262       .  A
C1486      C1880   1.464       .  S
O1487     Cr1494   1.979       .  S
O1488     Cr1494   2.006       .  S
O1488      C1489   1.263       .  A
C1489      O1490   1.260       .  A
C1489      C1704   1.468       .  S
O1490     Cr1495   1.990       .  S
O1491     Cr1495   2.037       .  S
O1491      C1492   1.272       .  A
C1492      C2360   1.481       .  S
Cr1493     O1496   1.761       .  S
Cr1494     O1496   1.767       .  S
Cr1495     O1496   1.766       .  S
O1497     Cr1515   2.015       .  S
O1497      C1505   1.268       .  A
O1498     Cr1515   1.970       .  S
O1498      C1499   1.256       .  A
C1499      O1500   1.268       .  A
C1499      C1755   1.473       .  S
O1500     Cr1516   2.030       .  S
O1501     Cr1516   1.982       .  S
O1501      C1502   1.263       .  A
C1502      O1503   1.272       .  A
C1502      C1640   1.483       .  S
O1503     Cr1517   2.032       .  S
O1504     Cr1517   1.973       .  S
O1504      C1505   1.259       .  A
C1505      C1659   1.469       .  S
O1506     Cr1515   1.965       .  S
O1506      C1514   1.256       .  A
O1507     Cr1515   2.021       .  S
O1507      C1508   1.269       .  A
C1508      O1509   1.260       .  A
C1508      C1784   1.469       .  S
O1509     Cr1516   1.966       .  S
O1510     Cr1516   2.022       .  S
O1510      C1511   1.268       .  A
C1511      O1512   1.260       .  A
C1511      C1675   1.471       .  S
O1512     Cr1517   1.979       .  S
O1513     Cr1517   2.040       .  S
O1513      C1514   1.270       .  A
C1514      C3387   1.483       .  S
Cr1515     O1518   1.761       .  S
Cr1516     O1518   1.767       .  S
Cr1517     O1518   1.766       .  S
O1519     Cr1537   2.007       .  S
O1519      C1527   1.265       .  A
O1520     Cr1537   1.979       .  S
O1520      C1521   1.257       .  A
C1521      O1522   1.264       .  A
C1521      C1832   1.466       .  S
O1522     Cr1538   2.010       .  S
O1523     Cr1538   1.975       .  S
O1523      C1524   1.261       .  A
C1524      O1525   1.273       .  A
C1524      C1624   1.483       .  S
O1525     Cr1539   2.038       .  S
O1526     Cr1539   1.990       .  S
O1526      C1527   1.262       .  A
C1527      C1672   1.472   1_556  S
O1528     Cr1537   1.973       .  S
O1528      C1536   1.260       .  A
O1529     Cr1537   2.020       .  S
O1529      C1530   1.269       .  A
C1530      O1531   1.262       .  A
C1530      C1739   1.473       .  S
O1531     Cr1538   1.979       .  S
O1532     Cr1538   2.008       .  S
O1532      C1533   1.263       .  A
C1533      O1534   1.259       .  A
C1533      C1656   1.464       .  S
O1534     Cr1539   1.983       .  S
O1535     Cr1539   2.037       .  S
O1535      C1536   1.272       .  A
C1536      C3323   1.487       .  S
Cr1537     O1540   1.765       .  S
Cr1538     O1540   1.771       .  S
Cr1539     O1540   1.768       .  S
O1541     Cr1559   1.951       .  S
O1541      C1549   1.262       .  A
O1542     Cr1559   2.002       .  S
O1542      C1543   1.259       .  A
C1543      O1544   1.258       .  A
C1543      C2059   1.470       .  S
O1544     Cr1560   1.994       .  S
O1545     Cr1560   1.986       .  S
O1545      C1546   1.260       .  A
C1546      O1547   1.262       .  A
C1546      C1643   1.484       .  S
O1547     Cr1561   2.002       .  S
O1548     Cr1561   2.030       .  S
O1548      C1549   1.273       .  A
C1549      C1608   1.461       .  S
O1550     Cr1559   1.991       .  S
O1550      C1558   1.257       .  A
O1551     Cr1559   1.981       .  S
O1551      C1552   1.263       .  A
C1552      O1553   1.266       .  A
C1552      C1944   1.456       .  S
O1553     Cr1560   2.003       .  S
O1554     Cr1560   1.949       .  S
O1554      C1555   1.258       .  A
C1555      O1556   1.269       .  A
C1555      C1592   1.477       .  S
O1556     Cr1561   2.024       .  S
O1557     Cr1561   1.999       .  S
O1557      C1558   1.257       .  A
C1558      C2635   1.478       .  S
Cr1559     O1562   1.777       .  S
Cr1560     O1562   1.778       .  S
Cr1561     O1562   1.795       .  S
O1563     Cr1581   1.952       .  S
O1563      C1571   1.260       .  A
O1564     Cr1581   1.998       .  S
O1564      C1565   1.259       .  A
C1565      O1566   1.257       .  A
C1565      C1976   1.464       .  S
O1566     Cr1582   1.990       .  S
O1567     Cr1582   1.988       .  S
O1567      C1568   1.259       .  A
C1568      O1569   1.261       .  A
C1568      C1627   1.481       .  S
O1569     Cr1583   1.996       .  S
O1570     Cr1583   2.033       .  S
O1570      C1571   1.273       .  A
C1571      C1595   1.470       .  S
O1572     Cr1581   1.991       .  S
O1572      C1580   1.257       .  A
O1573     Cr1581   1.987       .  S
O1573      C1574   1.264       .  A
C1574      O1575   1.266       .  A
C1574      C1992   1.465   1_556  S
O1575     Cr1582   2.008       .  S
O1576     Cr1582   1.946   1_554  S
O1576      C1577   1.259       .  A
C1577      O1578   1.269   1_554  A
C1577      C1611   1.468       .  S
O1578     Cr1583   2.022       .  S
O1579     Cr1583   1.991       .  S
O1579      C1580   1.256       .  A
C1580      C2619   1.470       .  S
Cr1581     O1584   1.781       .  S
Cr1582     O1584   1.777       .  S
Cr1583     O1584   1.798       .  S
C1585      S1591   1.723       .  A
C1585      C1590   1.385       .  A
C1585      C1586   1.413       .  A
C1586      C1587   1.413       .  A
C1586      H1597   1.083       .  S
C1587      C1596   1.383       .  A
C1587      C1588   1.388       .  A
C1588      S1594   1.692       .  A
C1588      C1589   1.391       .  A
C1589      C1590   1.392       .  A
C1589      H1598   1.084       .  S
C1590      C1593   1.358       .  A
S1591      C1592   1.730       .  A
C1592      C1593   1.383       .  A
C1593      H1599   1.084       .  S
S1594      C1595   1.718       .  A
C1595      C1596   1.392       .  A
C1596      H1600   1.082       .  S
C1601      S1607   1.692       .  A
C1601      C1606   1.388       .  A
C1601      C1602   1.389       .  A
C1602      C1603   1.391       .  A
C1602      H1613   1.084       .  S
C1603      C1612   1.356       .  A
C1603      C1604   1.386       .  A
C1604      S1610   1.721       .  A
C1604      C1605   1.410       .  A
C1605      C1606   1.411       .  A
C1605      H1614   1.083       .  S
C1606      C1609   1.378       .  A
S1607      C1608   1.714       .  A
C1608      C1609   1.390       .  A
C1609      H1615   1.083       .  S
S1610      C1611   1.727       .  A
C1611      C1612   1.380       .  A
C1612      H1616   1.084       .  S
C1617      S1623   1.716       .  A
C1617      C1622   1.386       .  A
C1617      C1618   1.408       .  A
C1618      C1619   1.408       .  A
C1618      H1629   1.083       .  S
C1619      C1628   1.379       .  A
C1619      C1620   1.387       .  A
C1620      S1626   1.706       .  A
C1620      C1621   1.402       .  A
C1621      C1622   1.403       .  A
C1621      H1630   1.083       .  S
C1622      C1625   1.373       .  A
S1623      C1624   1.727       .  A
C1624      C1625   1.389       .  A
C1625      H1631   1.083       .  S
S1626      C1627   1.725       .  A
C1627      C1628   1.391       .  A
C1628      H1632   1.083       .  S
C1633      S1639   1.714       .  A
C1633      C1638   1.386       .  A
C1633      C1634   1.409       .  A
C1634      C1635   1.408       .  A
C1634      H1645   1.083       .  S
C1635      C1644   1.382       .  A
C1635      C1636   1.387       .  A
C1636      S1642   1.704       .  A
C1636      C1637   1.403       .  A
C1637      C1638   1.402       .  A
C1637      H1646   1.083       .  S
C1638      C1641   1.375       .  A
S1639      C1640   1.727       .  A
C1640      C1641   1.389       .  A
C1641      H1647   1.083       .  S
S1642      C1643   1.725       .  A
C1643      C1644   1.392       .  A
C1644      H1648   1.083       .  S
C1649      S1655   1.706       .  A
C1649      C1654   1.388       .  A
C1649      C1650   1.400       .  A
C1650      C1651   1.401       .  A
C1650      H1661   1.083       .  S
C1651      C1660   1.369       .  A
C1651      C1652   1.387       .  A
C1652      S1658   1.707       .  A
C1652      C1653   1.402       .  A
C1653      C1654   1.403       .  A
C1653      H1662   1.083       .  S
C1654      C1657   1.371       .  A
S1655      C1656   1.719       .  A
C1656      C1657   1.385       .  A
C1657      H1663   1.083       .  S
S1658      C1659   1.723       .  A
C1659      C1660   1.385       .  A
C1660      H1664   1.083       .  S
C1665      S1671   1.712       .  A
C1665      C1670   1.387       .  A
C1665      C1666   1.404       .  A
C1666      C1667   1.405       .  A
C1666      H1677   1.083       .  S
C1667      C1676   1.374       .  A
C1667      C1668   1.387       .  A
C1668      S1674   1.707       .  A
C1668      C1669   1.401       .  A
C1669      C1670   1.402       .  A
C1669      H1678   1.083       .  S
C1670      C1673   1.370       .  A
S1671      C1672   1.723       .  A
C1672      C1673   1.386       .  A
C1673      H1679   1.083       .  S
S1674      C1675   1.722       .  A
C1675      C1676   1.387       .  A
C1676      H1680   1.083       .  S
C1681      S1687   1.710       .  A
C1681      C1686   1.387       .  A
C1681      C1682   1.402       .  A
C1682      C1683   1.404       .  A
C1682      H1693   1.083       .  S
C1683      C1692   1.371       .  A
C1683      C1684   1.387       .  A
C1684      S1690   1.711       .  A
C1684      C1685   1.402       .  A
C1685      C1686   1.404       .  A
C1685      H1694   1.083       .  S
C1686      C1689   1.370       .  A
S1687      C1688   1.722       .  A
C1688      C1689   1.387       .  A
C1689      H1695   1.083       .  S
S1690      C1691   1.723       .  A
C1691      C1692   1.386       .  A
C1692      H1696   1.083       .  S
C1697      S1703   1.710       .  A
C1697      C1702   1.387       .  A
C1697      C1698   1.402       .  A
C1698      C1699   1.403       .  A
C1698      H1709   1.083       .  S
C1699      C1708   1.371       .  A
C1699      C1700   1.387       .  A
C1700      S1706   1.708       .  A
C1700      C1701   1.401       .  A
C1701      C1702   1.402       .  A
C1701      H1710   1.083       .  S
C1702      C1705   1.370       .  A
S1703      C1704   1.721       .  A
C1704      C1705   1.386       .  A
C1705      H1711   1.084       .  S
S1706      C1707   1.722       .  A
C1707      C1708   1.385       .  A
C1708      H1712   1.083       .  S
C1713      S1719   1.715       .  A
C1713      C1718   1.386       .  A
C1713      C1714   1.409       .  A
C1714      C1715   1.409       .  A
C1714      H1725   1.083       .  S
C1715      C1724   1.379       .  A
C1715      C1716   1.387       .  A
C1716      S1722   1.702       .  A
C1716      C1717   1.398       .  A
C1717      C1718   1.398       .  A
C1717      H1726   1.083       .  S
C1718      C1721   1.368       .  A
S1719      C1720   1.728       .  A
C1720      C1721   1.385       .  A
C1721      H1727   1.083       .  S
S1722      C1723   1.720       .  A
C1723      C1724   1.391       .  A
C1724      H1728   1.083       .  S
C1729      S1735   1.713       .  A
C1729      C1734   1.387   1_455  A
C1729      C1730   1.404   1_455  A
C1730      C1731   1.406       .  A
C1730      H1741   1.083   1_655  S
C1731      C1740   1.372       .  A
C1731      C1732   1.387       .  A
C1732      S1738   1.708       .  A
C1732      C1733   1.400       .  A
C1733      C1734   1.401       .  A
C1733      H1742   1.083       .  S
C1734      C1737   1.368   1_655  A
S1735      C1736   1.722       .  A
C1736      C1737   1.383       .  A
C1737      H1743   1.084       .  S
S1738      C1739   1.722       .  A
C1739      C1740   1.389       .  A
C1740      H1744   1.083       .  S
C1745      S1751   1.713       .  A
C1745      C1750   1.386       .  A
C1745      C1746   1.406   1_455  A
C1746      C1747   1.407       .  A
C1746      H1757   1.083   1_655  S
C1747      C1756   1.375       .  A
C1747      C1748   1.387       .  A
C1748      S1754   1.705       .  A
C1748      C1749   1.399       .  A
C1749      C1750   1.401   1_655  A
C1749      H1758   1.083       .  S
C1750      C1753   1.368       .  A
S1751      C1752   1.724       .  A
C1752      C1753   1.384       .  A
C1753      H1759   1.084       .  S
S1754      C1755   1.722       .  A
C1755      C1756   1.390       .  A
C1756      H1760   1.083       .  S
C1761      S1767   1.712       .  A
C1761      C1766   1.387       .  A
C1761      C1762   1.406       .  A
C1762      C1763   1.406       .  A
C1762      H1773   1.083       .  S
C1763      C1772   1.377       .  A
C1763      C1764   1.387       .  A
C1764      S1770   1.706       .  A
C1764      C1765   1.401       .  A
C1765      C1766   1.402       .  A
C1765      H1774   1.083       .  S
C1766      C1769   1.372       .  A
S1767      C1768   1.726       .  A
C1768      C1769   1.386       .  A
C1769      H1775   1.083       .  S
S1770      C1771   1.724       .  A
C1771      C1772   1.390       .  A
C1772      H1776   1.083       .  S
C1777      S1783   1.711       .  A
C1777      C1782   1.387       .  A
C1777      C1778   1.403       .  A
C1778      C1779   1.404   1_655  A
C1778      H1789   1.083   1_655  S
C1779      C1788   1.370       .  A
C1779      C1780   1.388   1_455  A
C1780      S1786   1.703       .  A
C1780      C1781   1.397       .  A
C1781      C1782   1.399       .  A
C1781      H1790   1.083       .  S
C1782      C1785   1.365       .  A
S1783      C1784   1.724       .  A
C1784      C1785   1.385       .  A
C1785      H1791   1.083       .  S
S1786      C1787   1.717   1_655  A
C1787      C1788   1.384       .  A
C1788      H1792   1.083       .  S
C1793      S1799   1.713       .  A
C1793      C1798   1.387       .  A
C1793      C1794   1.406       .  A
C1794      C1795   1.406       .  A
C1794      H1805   1.083       .  S
C1795      C1804   1.376       .  A
C1795      C1796   1.388       .  A
C1796      S1802   1.703       .  A
C1796      C1797   1.399       .  A
C1797      C1798   1.400       .  A
C1797      H1806   1.083       .  S
C1798      C1801   1.368       .  A
S1799      C1800   1.723       .  A
C1800      C1801   1.384       .  A
C1801      H1807   1.083       .  S
S1802      C1803   1.719       .  A
C1803      C1804   1.387       .  A
C1804      H1808   1.083       .  S
C1809      S1815   1.689       .  A
C1809      C1814   1.388       .  A
C1809      C1810   1.391       .  A
C1810      C1811   1.392       .  A
C1810      H1821   1.084       .  S
C1811      C1820   1.360       .  A
C1811      C1812   1.385       .  A
C1812      S1818   1.719       .  A
C1812      C1813   1.411       .  A
C1813      C1814   1.411       .  A
C1813      H1822   1.083       .  S
C1814      C1817   1.382       .  A
S1815      C1816   1.722       .  A
C1816      C1817   1.392       .  A
C1817      H1823   1.083       .  S
S1818      C1819   1.728       .  A
C1819      C1820   1.383       .  A
C1820      H1824   1.084       .  S
C1825      S1831   1.710       .  A
C1825      C1830   1.387       .  A
C1825      C1826   1.401   1_556  A
C1826      C1827   1.403   1_654  A
C1826      H1837   1.083       .  S
C1827      C1836   1.369   1_556  A
C1827      C1828   1.387       .  A
C1828      S1834   1.708       .  A
C1828      C1829   1.400   1_455  A
C1829      C1830   1.402       .  A
C1829      H1838   1.083       .  S
C1830      C1833   1.368       .  A
S1831      C1832   1.722       .  A
C1832      C1833   1.386       .  A
C1833      H1839   1.084       .  S
S1834      C1835   1.720   1_556  A
C1835      C1836   1.386       .  A
C1836      H1840   1.083       .  S
C1841      S1847   1.712       .  A
C1841      C1846   1.387       .  A
C1841      C1842   1.404       .  A
C1842      C1843   1.406       .  A
C1842      H1853   1.083       .  S
C1843      C1852   1.371       .  A
C1843      C1844   1.387       .  A
C1844      S1850   1.705       .  A
C1844      C1845   1.398       .  A
C1845      C1846   1.400       .  A
C1845      H1854   1.083       .  S
C1846      C1849   1.367       .  A
S1847      C1848   1.725       .  A
C1848      C1849   1.384       .  A
C1849      H1855   1.083   1_556  S
S1850      C1851   1.720       .  A
C1851      C1852   1.389       .  A
C1852      H1856   1.083       .  S
C1857      S1863   1.705       .  A
C1857      C1862   1.387       .  A
C1857      C1858   1.402       .  A
C1858      C1859   1.402       .  A
C1858      H1869   1.083       .  S
C1859      C1868   1.371       .  A
C1859      C1860   1.388       .  A
C1860      S1866   1.699       .  A
C1860      C1861   1.397       .  A
C1861      C1862   1.398       .  A
C1861      H1870   1.084       .  S
C1862      C1865   1.367       .  A
S1863      C1864   1.724       .  A
C1864      C1865   1.383       .  A
C1865      H1871   1.084       .  S
S1866      C1867   1.720       .  A
C1867      C1868   1.384       .  A
C1868      H1872   1.083       .  S
C1873      S1879   1.708       .  A
C1873      C1878   1.387       .  A
C1873      C1874   1.398       .  A
C1874      C1875   1.401       .  A
C1874      H1885   1.083       .  S
C1875      C1884   1.365       .  A
C1875      C1876   1.387       .  A
C1876      S1882   1.708       .  A
C1876      C1877   1.400       .  A
C1877      C1878   1.402       .  A
C1877      H1886   1.083       .  S
C1878      C1881   1.365       .  A
S1879      C1880   1.720       .  A
C1880      C1881   1.385       .  A
C1881      H1887   1.084       .  S
S1882      C1883   1.723       .  A
C1883      C1884   1.384       .  A
C1884      H1888   1.083       .  S
C1889      S1895   1.713       .  A
C1889      C1894   1.386       .  A
C1889      C1890   1.407       .  A
C1890      C1891   1.408       .  A
C1890      H1901   1.083       .  S
C1891      C1900   1.378       .  A
C1891      C1892   1.387       .  A
C1892      S1898   1.709       .  A
C1892      C1893   1.403       .  A
C1893      C1894   1.403       .  A
C1893      H1902   1.083       .  S
C1894      C1897   1.374       .  A
S1895      C1896   1.725       .  A
C1896      C1897   1.387       .  A
C1897      H1903   1.083       .  S
S1898      C1899   1.723       .  A
C1899      C1900   1.391       .  A
C1900      H1904   1.083       .  S
C1905      S1911   1.707       .  A
C1905      C1910   1.387       .  A
C1905      C1906   1.404   1_556  A
C1906      C1907   1.403       .  A
C1906      H1917   1.083       .  S
C1907      C1916   1.375       .  A
C1907      C1908   1.387       .  A
C1908      S1914   1.710       .  A
C1908      C1909   1.405   1_554  A
C1909      C1910   1.405       .  A
C1909      H1918   1.083       .  S
C1910      C1913   1.377       .  A
S1911      C1912   1.724       .  A
C1912      C1913   1.387       .  A
C1913      H1919   1.083       .  S
S1914      C1915   1.725       .  A
C1915      C1916   1.387       .  A
C1916      H1920   1.083       .  S
C1921      S1927   1.705       .  A
C1921      C1926   1.387       .  A
C1921      C1922   1.403       .  A
C1922      C1923   1.403       .  A
C1922      H1933   1.083       .  S
C1923      C1932   1.374       .  A
C1923      C1924   1.387       .  A
C1924      S1930   1.709       .  A
C1924      C1925   1.405       .  A
C1925      C1926   1.405       .  A
C1925      H1934   1.083       .  S
C1926      C1929   1.376       .  A
S1927      C1928   1.723       .  A
C1928      C1929   1.388       .  A
C1929      H1935   1.083       .  S
S1930      C1931   1.725       .  A
C1931      C1932   1.387       .  A
C1932      H1936   1.083       .  S
C1937      S1943   1.708       .  A
C1937      C1942   1.388       .  A
C1937      C1938   1.402       .  A
C1938      C1939   1.403       .  A
C1938      H1949   1.083       .  S
C1939      C1948   1.372       .  A
C1939      C1940   1.388       .  A
C1940      S1946   1.702       .  A
C1940      C1941   1.399       .  A
C1941      C1942   1.399       .  A
C1941      H1950   1.083       .  S
C1942      C1945   1.367       .  A
S1943      C1944   1.720       .  A
C1944      C1945   1.382       .  A
C1945      H1951   1.083       .  S
S1946      C1947   1.723       .  A
C1947      C1948   1.386       .  A
C1948      H1952   1.083       .  S
C1953      S1959   1.713       .  A
C1953      C1958   1.386       .  A
C1953      C1954   1.407   1_655  A
C1954      C1955   1.407       .  A
C1954      H1965   1.083       .  S
C1955      C1964   1.378       .  A
C1955      C1956   1.387       .  A
C1956      S1962   1.705       .  A
C1956      C1957   1.401   1_455  A
C1957      C1958   1.402       .  A
C1957      H1966   1.083       .  S
C1958      C1961   1.371       .  A
S1959      C1960   1.726       .  A
C1960      C1961   1.387       .  A
C1961      H1967   1.083       .  S
S1962      C1963   1.725       .  A
C1963      C1964   1.390       .  A
C1964      H1968   1.083       .  S
C1969      S1975   1.702       .  A
C1969      C1974   1.388       .  A
C1969      C1970   1.399       .  A
C1970      C1971   1.400       .  A
C1970      H1981   1.083       .  S
C1971      C1980   1.369       .  A
C1971      C1972   1.387       .  A
C1972      S1978   1.712       .  A
C1972      C1973   1.406       .  A
C1973      C1974   1.406       .  A
C1973      H1982   1.083       .  S
C1974      C1977   1.377       .  A
S1975      C1976   1.720       .  A
C1976      C1977   1.386       .  A
C1977      H1983   1.083       .  S
S1978      C1979   1.725       .  A
C1979      C1980   1.387       .  A
C1980      H1984   1.083       .  S
C1985      S1991   1.712       .  A
C1985      C1990   1.387       .  A
C1985      C1986   1.403       .  A
C1986      C1987   1.404       .  A
C1986      H1997   1.083       .  S
C1987      C1996   1.371       .  A
C1987      C1988   1.387       .  A
C1988      S1994   1.709       .  A
C1988      C1989   1.402       .  A
C1989      C1990   1.404       .  A
C1989      H1998   1.083   1_554  S
C1990      C1993   1.370       .  A
S1991      C1992   1.721       .  A
C1992      C1993   1.386       .  A
C1993      H1999   1.084   1_554  S
S1994      C1995   1.724       .  A
C1995      C1996   1.387       .  A
C1996      H2000   1.083       .  S
C2001      S2007   1.717       .  A
C2001      C2006   1.386       .  A
C2001      C2002   1.406   1_655  A
C2002      C2003   1.408       .  A
C2002      H2013   1.083       .  S
C2003      C2012   1.374       .  A
C2003      C2004   1.387       .  A
C2004      S2010   1.703       .  A
C2004      C2005   1.395   1_455  A
C2005      C2006   1.397       .  A
C2005      H2014   1.084       .  S
C2006      C2009   1.362       .  A
S2007      C2008   1.727       .  A
C2008      C2009   1.384       .  A
C2009      H2015   1.084       .  S
S2010      C2011   1.720       .  A
C2011      C2012   1.390       .  A
C2012      H2016   1.083       .  S
C2017      S2023   1.707       .  A
C2017      C2022   1.387       .  A
C2017      C2018   1.402   1_554  A
C2018      C2019   1.403       .  A
C2018      H2029   1.083       .  S
C2019      C2028   1.372       .  A
C2019      C2020   1.387       .  A
C2020      S2026   1.709       .  A
C2020      C2021   1.404       .  A
C2021      C2022   1.404   1_556  A
C2021      H2030   1.083       .  S
C2022      C2025   1.373       .  A
S2023      C2024   1.721       .  A
C2024      C2025   1.387       .  A
C2025      H2031   1.083       .  S
S2026      C2027   1.724       .  A
C2027      C2028   1.386       .  A
C2028      H2032   1.083       .  S
C2033      S2039   1.711       .  A
C2033      C2038   1.387       .  A
C2033      C2034   1.404       .  A
C2034      C2035   1.405       .  A
C2034      H2045   1.083       .  S
C2035      C2044   1.374       .  A
C2035      C2036   1.388       .  A
C2036      S2042   1.706       .  A
C2036      C2037   1.400       .  A
C2037      C2038   1.401       .  A
C2037      H2046   1.083       .  S
C2038      C2041   1.369       .  A
S2039      C2040   1.724       .  A
C2040      C2041   1.385       .  A
C2041      H2047   1.083       .  S
S2042      C2043   1.719       .  A
C2043      C2044   1.387       .  A
C2044      H2048   1.083       .  S
C2049      S2055   1.707       .  A
C2049      C2054   1.387       .  A
C2049      C2050   1.406       .  A
C2050      C2051   1.406       .  A
C2050      H2061   1.083       .  S
C2051      C2060   1.379       .  A
C2051      C2052   1.387       .  A
C2052      S2058   1.705       .  A
C2052      C2053   1.404       .  A
C2053      C2054   1.403       .  A
C2053      H2062   1.083       .  S
C2054      C2057   1.377       .  A
S2055      C2056   1.725       .  A
C2056      C2057   1.388       .  A
C2057      H2063   1.083       .  S
S2058      C2059   1.721       .  A
C2059      C2060   1.389       .  A
C2060      H2064   1.083       .  S
C2065      S2071   1.701       .  A
C2065      C2070   1.387       .  A
C2065      C2066   1.399   1_554  A
C2066      C2067   1.399       .  A
C2066      H2077   1.083       .  S
C2067      C2076   1.370       .  A
C2067      C2068   1.387       .  A
C2068      S2074   1.714       .  A
C2068      C2069   1.408       .  A
C2069      C2070   1.408   1_556  A
C2069      H2078   1.083   1_556  S
C2070      C2073   1.380       .  A
S2071      C2072   1.723       .  A
C2072      C2073   1.391       .  A
C2073      H2079   1.083       .  S
S2074      C2075   1.724       .  A
C2075      C2076   1.382       .  A
C2076      H2080   1.083       .  S
C2081      S2087   1.700       .  A
C2081      C2086   1.387       .  A
C2081      C2082   1.398       .  A
C2082      C2083   1.398       .  A
C2082      H2093   1.083       .  S
C2083      C2092   1.367       .  A
C2083      C2084   1.386       .  A
C2084      S2090   1.717       .  A
C2084      C2085   1.409       .  A
C2085      C2086   1.409       .  A
C2085      H2094   1.083       .  S
C2086      C2089   1.380       .  A
S2087      C2088   1.723       .  A
C2088      C2089   1.391       .  A
C2089      H2095   1.083       .  S
S2090      C2091   1.725       .  A
C2091      C2092   1.384       .  A
C2092      H2096   1.084       .  S
C2097      S2103   1.718       .  A
C2097      C2102   1.386       .  A
C2097      C2098   1.410       .  A
C2098      C2099   1.410       .  A
C2098      H2109   1.083       .  S
C2099      C2108   1.383       .  A
C2099      C2100   1.387       .  A
C2100      S2106   1.704       .  A
C2100      C2101   1.402       .  A
C2101      C2102   1.402       .  A
C2101      H2110   1.084       .  S
C2102      C2105   1.372       .  A
S2103      C2104   1.727       .  A
C2104      C2105   1.389       .  A
C2105      H2111   1.084       .  S
S2106      C2107   1.726       .  A
C2107      C2108   1.393       .  A
C2108      H2112   1.083       .  S
C2113      S2119   1.710       .  A
C2113      C2118   1.386       .  A
C2113      C2114   1.407       .  A
C2114      C2115   1.406       .  A
C2114      H2125   1.083       .  S
C2115      C2124   1.378       .  A
C2115      C2116   1.386       .  A
C2116      S2122   1.711       .  A
C2116      C2117   1.406       .  A
C2117      C2118   1.406       .  A
C2117      H2126   1.083       .  S
C2118      C2121   1.379       .  A
S2119      C2120   1.728       .  A
C2120      C2121   1.390       .  A
C2121      H2127   1.083       .  S
S2122      C2123   1.725       .  A
C2123      C2124   1.391       .  A
C2124      H2128   1.083       .  S
C2129      S2135   1.698       .  A
C2129      C2134   1.388       .  A
C2129      C2130   1.395       .  A
C2130      C2131   1.396       .  A
C2130      H2141   1.084       .  S
C2131      C2140   1.363       .  A
C2131      C2132   1.386       .  A
C2132      S2138   1.716       .  A
C2132      C2133   1.408       .  A
C2133      C2134   1.409       .  A
C2133      H2142   1.083       .  S
C2134      C2137   1.377       .  A
S2135      C2136   1.720       .  A
C2136      C2137   1.390       .  A
C2137      H2143   1.083       .  S
S2138      C2139   1.727       .  A
C2139      C2140   1.382       .  A
C2140      H2144   1.084       .  S
C2145      S2151   1.707       .  A
C2145      C2150   1.386       .  A
C2145      C2146   1.400       .  A
C2146      C2147   1.401       .  A
C2146      H2157   1.083       .  S
C2147      C2156   1.369       .  A
C2147      C2148   1.386       .  A
C2148      S2154   1.717       .  A
C2148      C2149   1.408       .  A
C2149      C2150   1.409       .  A
C2149      H2158   1.083       .  S
C2150      C2153   1.377       .  A
S2151      C2152   1.722       .  A
C2152      C2153   1.392       .  A
C2153      H2159   1.083       .  S
S2154      C2155   1.728       .  A
C2155      C2156   1.387       .  A
C2156      H2160   1.083       .  S
C2161      S2167   1.708       .  A
C2161      C2166   1.387       .  A
C2161      C2162   1.402       .  A
C2162      C2163   1.403       .  A
C2162      H2173   1.083       .  S
C2163      C2172   1.373       .  A
C2163      C2164   1.387       .  A
C2164      S2170   1.709       .  A
C2164      C2165   1.403       .  A
C2165      C2166   1.404       .  A
C2165      H2174   1.083       .  S
C2166      C2169   1.373       .  A
S2167      C2168   1.722       .  A
C2168      C2169   1.387       .  A
C2169      H2175   1.083       .  S
S2170      C2171   1.721       .  A
C2171      C2172   1.387       .  A
C2172      H2176   1.083       .  S
C2177      S2183   1.709       .  A
C2177      C2182   1.387       .  A
C2177      C2178   1.402   1_556  A
C2178      C2179   1.403       .  A
C2178      H2189   1.083       .  S
C2179      C2188   1.370       .  A
C2179      C2180   1.387       .  A
C2180      S2186   1.710       .  A
C2180      C2181   1.403       .  A
C2181      C2182   1.404   1_554  A
C2181      H2190   1.083       .  S
C2182      C2185   1.371       .  A
S2183      C2184   1.722       .  A
C2184      C2185   1.387       .  A
C2185      H2191   1.083       .  S
S2186      C2187   1.721       .  A
C2187      C2188   1.385       .  A
C2188      H2192   1.083       .  S
C2193      S2199   1.703       .  A
C2193      C2198   1.388       .  A
C2193      C2194   1.396       .  A
C2194      C2195   1.398       .  A
C2194      H2205   1.090       .  S
C2195      C2204   1.364       .  A
C2195      C2196   1.388       .  A
C2196      S2202   1.713       .  A
C2196      C2197   1.403       .  A
C2197      C2198   1.405       .  A
C2197      H2206   1.088       .  S
C2198      C2201   1.371       .  A
S2199      C2200   1.720       .  A
C2200      C2201   1.388       .  A
C2201      H2207   1.087       .  S
S2202      C2203   1.721       .  A
C2203      C2204   1.380       .  A
C2204      H2208   1.091   1_554  S
C2209      S2215   1.710       .  A
C2209      C2214   1.387       .  A
C2209      C2210   1.402       .  A
C2210      C2211   1.404       .  A
C2210      H2221   1.085       .  S
C2211      C2220   1.371       .  A
C2211      C2212   1.387       .  A
C2212      S2218   1.710       .  A
C2212      C2213   1.402       .  A
C2213      C2214   1.404       .  A
C2213      H2222   1.087       .  S
C2214      C2217   1.372       .  A
S2215      C2216   1.721       .  A
C2216      C2217   1.387       .  A
C2217      H2223   1.085       .  S
S2218      C2219   1.721       .  A
C2219      C2220   1.387       .  A
C2220      H2224   1.084       .  S
C2225      S2231   1.707       .  A
C2225      C2230   1.387       .  A
C2225      C2226   1.401       .  A
C2226      C2227   1.402       .  A
C2226      H2237   1.078       .  S
C2227      C2236   1.369       .  A
C2227      C2228   1.386       .  A
C2228      S2234   1.717       .  A
C2228      C2229   1.408       .  A
C2229      C2230   1.409       .  A
C2229      H2238   1.079       .  S
C2230      C2233   1.376       .  A
S2231      C2232   1.722       .  A
C2232      C2233   1.392       .  A
C2233      H2239   1.080       .  S
S2234      C2235   1.723       .  A
C2235      C2236   1.386       .  A
C2236      H2240   1.077       .  S
C2241      S2247   1.715       .  A
C2241      C2246   1.386       .  A
C2241      C2242   1.407       .  A
C2242      C2243   1.408       .  A
C2242      H2253   1.083       .  S
C2243      C2252   1.379       .  A
C2243      C2244   1.388       .  A
C2244      S2250   1.702       .  A
C2244      C2245   1.398       .  A
C2245      C2246   1.399       .  A
C2245      H2254   1.084       .  S
C2246      C2249   1.367       .  A
S2247      C2248   1.725       .  A
C2248      C2249   1.387       .  A
C2249      H2255   1.084       .  S
S2250      C2251   1.720       .  A
C2251      C2252   1.388       .  A
C2252      H2256   1.083       .  S
C2257      S2263   1.698       .  A
C2257      C2262   1.387       .  A
C2257      C2258   1.395       .  A
C2258      C2259   1.396       .  A
C2258      H2269   1.084       .  S
C2259      C2268   1.363       .  A
C2259      C2260   1.386       .  A
C2260      S2266   1.722       .  A
C2260      C2261   1.412       .  A
C2261      C2262   1.413       .  A
C2261      H2270   1.083       .  S
C2262      C2265   1.383       .  A
S2263      C2264   1.721       .  A
C2264      C2265   1.395       .  A
C2265      H2271   1.083       .  S
S2266      C2267   1.728       .  A
C2267      C2268   1.382       .  A
C2268      H2272   1.084       .  S
C2273      S2279   1.703       .  A
C2273      C2278   1.388       .  A
C2273      C2274   1.400       .  A
C2274      C2275   1.401       .  A
C2274      H2285   1.084       .  S
C2275      C2284   1.370       .  A
C2275      C2276   1.387       .  A
C2276      S2282   1.705       .  A
C2276      C2277   1.402       .  A
C2277      C2278   1.402       .  A
C2277      H2286   1.083       .  S
C2278      C2281   1.372       .  A
S2279      C2280   1.721       .  A
C2280      C2281   1.384       .  A
C2281      H2287   1.083       .  S
S2282      C2283   1.722       .  A
C2283      C2284   1.385       .  A
C2284      H2288   1.084       .  S
C2289      S2295   1.711       .  A
C2289      C2294   1.386       .  A
C2289      C2290   1.406       .  A
C2290      C2291   1.406       .  A
C2290      H2301   1.083       .  S
C2291      C2300   1.378       .  A
C2291      C2292   1.387       .  A
C2292      S2298   1.704       .  A
C2292      C2293   1.403       .  A
C2293      C2294   1.402       .  A
C2293      H2302   1.083       .  S
C2294      C2297   1.373       .  A
S2295      C2296   1.725       .  A
C2296      C2297   1.388       .  A
C2297      H2303   1.083       .  S
S2298      C2299   1.726       .  A
C2299      C2300   1.389       .  A
C2300      H2304   1.083       .  S
C2305      S2311   1.710       .  A
C2305      C2310   1.386       .  A
C2305      C2306   1.408       .  A
C2306      C2307   1.407       .  A
C2306      H2317   1.083       .  S
C2307      C2316   1.380       .  A
C2307      C2308   1.387       .  A
C2308      S2314   1.708       .  A
C2308      C2309   1.405       .  A
C2309      C2310   1.404       .  A
C2309      H2318   1.083       .  S
C2310      C2313   1.378       .  A
S2311      C2312   1.727       .  A
C2312      C2313   1.389       .  A
C2313      H2319   1.083       .  S
S2314      C2315   1.724       .  A
C2315      C2316   1.391       .  A
C2316      H2320   1.083       .  S
C2321      S2327   1.697       .  A
C2321      C2326   1.387       .  A
C2321      C2322   1.396       .  A
C2322      C2323   1.397       .  A
C2322      H2333   1.083       .  S
C2323      C2332   1.365       .  A
C2323      C2324   1.386       .  A
C2324      S2330   1.717       .  A
C2324      C2325   1.410       .  A
C2325      C2326   1.410       .  A
C2325      H2334   1.083       .  S
C2326      C2329   1.380       .  A
S2327      C2328   1.720       .  A
C2328      C2329   1.391       .  A
C2329      H2335   1.083       .  S
S2330      C2331   1.727       .  A
C2331      C2332   1.384       .  A
C2332      H2336   1.084       .  S
C2337      S2343   1.700       .  A
C2337      C2342   1.388       .  A
C2337      C2338   1.399       .  A
C2338      C2339   1.399       .  A
C2338      H2349   1.083       .  S
C2339      C2348   1.368       .  A
C2339      C2340   1.386       .  A
C2340      S2346   1.711       .  A
C2340      C2341   1.406       .  A
C2341      C2342   1.406       .  A
C2341      H2350   1.083       .  S
C2342      C2345   1.377       .  A
S2343      C2344   1.720       .  A
C2344      C2345   1.387       .  A
C2345      H2351   1.083       .  S
S2346      C2347   1.725       .  A
C2347      C2348   1.386       .  A
C2348      H2352   1.084       .  S
C2353      S2359   1.702       .  A
C2353      C2358   1.387       .  A
C2353      C2354   1.400       .  A
C2354      C2355   1.400       .  A
C2354      H2365   1.083       .  S
C2355      C2364   1.371       .  A
C2355      C2356   1.386       .  A
C2356      S2362   1.717       .  A
C2356      C2357   1.410       .  A
C2357      C2358   1.410       .  A
C2357      H2366   1.083       .  S
C2358      C2361   1.382       .  A
S2359      C2360   1.724       .  A
C2360      C2361   1.392       .  A
C2361      H2367   1.083       .  S
S2362      C2363   1.727       .  A
C2363      C2364   1.386       .  A
C2364      H2368   1.083       .  S
C2369      S2375   1.710       .  A
C2369      C2374   1.387       .  A
C2369      C2370   1.404       .  A
C2370      C2371   1.404       .  A
C2370      H2381   1.083       .  S
C2371      C2380   1.375       .  A
C2371      C2372   1.387       .  A
C2372      S2378   1.704       .  A
C2372      C2373   1.401       .  A
C2373      C2374   1.401       .  A
C2373      H2382   1.083       .  S
C2374      C2377   1.370       .  A
S2375      C2376   1.721       .  A
C2376      C2377   1.384       .  A
C2377      H2383   1.083       .  S
S2378      C2379   1.724       .  A
C2379      C2380   1.387       .  A
C2380      H2384   1.083       .  S
C2385      S2391   1.711       .  A
C2385      C2390   1.387       .  A
C2385      C2386   1.404       .  A
C2386      C2387   1.405       .  A
C2386      H2397   1.083       .  S
C2387      C2396   1.373       .  A
C2387      C2388   1.387       .  A
C2388      S2394   1.707       .  A
C2388      C2389   1.400       .  A
C2389      C2390   1.402       .  A
C2389      H2398   1.083       .  S
C2390      C2393   1.369       .  A
S2391      C2392   1.722       .  A
C2392      C2393   1.384       .  A
C2393      H2399   1.084       .  S
S2394      C2395   1.720       .  A
C2395      C2396   1.389       .  A
C2396      H2400   1.083       .  S
C2401      S2407   1.704       .  A
C2401      C2406   1.387       .  A
C2401      C2402   1.401       .  A
C2402      C2403   1.401       .  A
C2402      H2413   1.083       .  S
C2403      C2412   1.372       .  A
C2403      C2404   1.386       .  A
C2404      S2410   1.712       .  A
C2404      C2405   1.406       .  A
C2405      C2406   1.406       .  A
C2405      H2414   1.083       .  S
C2406      C2409   1.377       .  A
S2407      C2408   1.723       .  A
C2408      C2409   1.389       .  A
C2409      H2415   1.083       .  S
S2410      C2411   1.726       .  A
C2411      C2412   1.387       .  A
C2412      H2416   1.084       .  S
C2417      S2423   1.705       .  A
C2417      C2422   1.388       .  A
C2417      C2418   1.397       .  A
C2418      C2419   1.399       .  A
C2418      H2429   1.083       .  S
C2419      C2428   1.364       .  A
C2419      C2420   1.387       .  A
C2420      S2426   1.711       .  A
C2420      C2421   1.402       .  A
C2421      C2422   1.404       .  A
C2421      H2430   1.083       .  S
C2422      C2425   1.369       .  A
S2423      C2424   1.719       .  A
C2424      C2425   1.386       .  A
C2425      H2431   1.083       .  S
S2426      C2427   1.723       .  A
C2427      C2428   1.384       .  A
C2428      H2432   1.084   1_556  S
C2433      S2439   1.716       .  A
C2433      C2438   1.386       .  A
C2433      C2434   1.408       .  A
C2434      C2435   1.409       .  A
C2434      H2445   1.083       .  S
C2435      C2444   1.379       .  A
C2435      C2436   1.388       .  A
C2436      S2442   1.699       .  A
C2436      C2437   1.396       .  A
C2437      C2438   1.397       .  A
C2437      H2446   1.084       .  S
C2438      C2441   1.365       .  A
S2439      C2440   1.727       .  A
C2440      C2441   1.385       .  A
C2441      H2447   1.084       .  S
S2442      C2443   1.718       .  A
C2443      C2444   1.389       .  A
C2444      H2448   1.083       .  S
C2449      S2455   1.696       .  A
C2449      C2454   1.387       .  A
C2449      C2450   1.394       .  A
C2450      C2451   1.395       .  A
C2450      H2461   1.083       .  S
C2451      C2460   1.362       .  A
C2451      C2452   1.386       .  A
C2452      S2458   1.718       .  A
C2452      C2453   1.409       .  A
C2453      C2454   1.409       .  A
C2453      H2462   1.083       .  S
C2454      C2457   1.379       .  A
S2455      C2456   1.721       .  A
C2456      C2457   1.391       .  A
C2457      H2463   1.083       .  S
S2458      C2459   1.726       .  A
C2459      C2460   1.382       .  A
C2460      H2464   1.084       .  S
C2465      S2471   1.708       .  A
C2465      C2470   1.387       .  A
C2465      C2466   1.405       .  A
C2466      C2467   1.405       .  A
C2466      H2477   1.083       .  S
C2467      C2476   1.376       .  A
C2467      C2468   1.387       .  A
C2468      S2474   1.703       .  A
C2468      C2469   1.402       .  A
C2469      C2470   1.402       .  A
C2469      H2478   1.083       .  S
C2470      C2473   1.374       .  A
S2471      C2472   1.724       .  A
C2472      C2473   1.387       .  A
C2473      H2479   1.083       .  S
S2474      C2475   1.722       .  A
C2475      C2476   1.389       .  A
C2476      H2480   1.083       .  S
C2481      S2487   1.708       .  A
C2481      C2486   1.387       .  A
C2481      C2482   1.402       .  A
C2482      C2483   1.403       .  A
C2482      H2493   1.083       .  S
C2483      C2492   1.370       .  A
C2483      C2484   1.388       .  A
C2484      S2490   1.707       .  A
C2484      C2485   1.400       .  A
C2485      C2486   1.401       .  A
C2485      H2494   1.083       .  S
C2486      C2489   1.369       .  A
S2487      C2488   1.724       .  A
C2488      C2489   1.386       .  A
C2489      H2495   1.083       .  S
S2490      C2491   1.720       .  A
C2491      C2492   1.385       .  A
C2492      H2496   1.084       .  S
C2497      S2503   1.712       .  A
C2497      C2502   1.386       .  A
C2497      C2498   1.405       .  A
C2498      C2499   1.406       .  A
C2498      H2509   1.083       .  S
C2499      C2508   1.375       .  A
C2499      C2500   1.386       .  A
C2500      S2506   1.714       .  A
C2500      C2501   1.407       .  A
C2501      C2502   1.407       .  A
C2501      H2510   1.083       .  S
C2502      C2505   1.378       .  A
S2503      C2504   1.727       .  A
C2504      C2505   1.391       .  A
C2505      H2511   1.083       .  S
S2506      C2507   1.726       .  A
C2507      C2508   1.390       .  A
C2508      H2512   1.083       .  S
C2513      S2519   1.705       .  A
C2513      C2518   1.387       .  A
C2513      C2514   1.401       .  A
C2514      C2515   1.402       .  A
C2514      H2525   1.083       .  S
C2515      C2524   1.372       .  A
C2515      C2516   1.387       .  A
C2516      S2522   1.703       .  A
C2516      C2517   1.402       .  A
C2517      C2518   1.402       .  A
C2517      H2526   1.083       .  S
C2518      C2521   1.372       .  A
S2519      C2520   1.722       .  A
C2520      C2521   1.386       .  A
C2521      H2527   1.083       .  S
S2522      C2523   1.723       .  A
C2523      C2524   1.384       .  A
C2524      H2528   1.083       .  S
C2529      S2535   1.708       .  A
C2529      C2534   1.388       .  A
C2529      C2530   1.401       .  A
C2530      C2531   1.402       .  A
C2530      H2541   1.083       .  S
C2531      C2540   1.368       .  A
C2531      C2532   1.387       .  A
C2532      S2538   1.710       .  A
C2532      C2533   1.402       .  A
C2533      C2534   1.403       .  A
C2533      H2542   1.083       .  S
C2534      C2537   1.371       .  A
S2535      C2536   1.720       .  A
C2536      C2537   1.384       .  A
C2537      H2543   1.083       .  S
S2538      C2539   1.720       .  A
C2539      C2540   1.384       .  A
C2540      H2544   1.084       .  S
C2545      S2551   1.714       .  A
C2545      C2550   1.386       .  A
C2545      C2546   1.408       .  A
C2546      C2547   1.409       .  A
C2546      H2557   1.083       .  S
C2547      C2556   1.379       .  A
C2547      C2548   1.387       .  A
C2548      S2554   1.706       .  A
C2548      C2549   1.401       .  A
C2549      C2550   1.401       .  A
C2549      H2558   1.083       .  S
C2550      C2553   1.372       .  A
S2551      C2552   1.729       .  A
C2552      C2553   1.386       .  A
C2553      H2559   1.083       .  S
S2554      C2555   1.723       .  A
C2555      C2556   1.392       .  A
C2556      H2560   1.083       .  S
C2561      S2567   1.716       .  A
C2561      C2566   1.386       .  A
C2561      C2562   1.408       .  A
C2562      C2563   1.409       .  A
C2562      H2573   1.083       .  S
C2563      C2572   1.378       .  A
C2563      C2564   1.388       .  A
C2564      S2570   1.703       .  A
C2564      C2565   1.398       .  A
C2565      C2566   1.399       .  A
C2565      H2574   1.083       .  S
C2566      C2569   1.367       .  A
S2567      C2568   1.727       .  A
C2568      C2569   1.387       .  A
C2569      H2575   1.084       .  S
S2570      C2571   1.719       .  A
C2571      C2572   1.389       .  A
C2572      H2576   1.083       .  S
C2577      S2583   1.700       .  A
C2577      C2582   1.387       .  A
C2577      C2578   1.398       .  A
C2578      C2579   1.398       .  A
C2578      H2589   1.083       .  S
C2579      C2588   1.367       .  A
C2579      C2580   1.387       .  A
C2580      S2586   1.716       .  A
C2580      C2581   1.408       .  A
C2581      C2582   1.409       .  A
C2581      H2590   1.083       .  S
C2582      C2585   1.379       .  A
S2583      C2584   1.722       .  A
C2584      C2585   1.391       .  A
C2585      H2591   1.083       .  S
S2586      C2587   1.725       .  A
C2587      C2588   1.383       .  A
C2588      H2592   1.084       .  S
C2593      S2599   1.712       .  A
C2593      C2598   1.386       .  A
C2593      C2594   1.402   1_554  A
C2594      C2595   1.404   1_556  A
C2594      H2605   1.083       .  S
C2595      C2604   1.370   1_554  A
C2595      C2596   1.387       .  A
C2596      S2602   1.707       .  A
C2596      C2597   1.399       .  A
C2597      C2598   1.402       .  A
C2597      H2606   1.083       .  S
C2598      C2601   1.366       .  A
S2599      C2600   1.721       .  A
C2600      C2601   1.386       .  A
C2601      H2607   1.084       .  S
S2602      C2603   1.722   1_554  A
C2603      C2604   1.386       .  A
C2604      H2608   1.083       .  S
C2609      S2615   1.716       .  A
C2609      C2614   1.386       .  A
C2609      C2610   1.409       .  A
C2610      C2611   1.409       .  A
C2610      H2621   1.083       .  S
C2611      C2620   1.379       .  A
C2611      C2612   1.388       .  A
C2612      S2618   1.702       .  A
C2612      C2613   1.398       .  A
C2613      C2614   1.398       .  A
C2613      H2622   1.084       .  S
C2614      C2617   1.367       .  A
S2615      C2616   1.727       .  A
C2616      C2617   1.385       .  A
C2617      H2623   1.084       .  S
S2618      C2619   1.718       .  A
C2619      C2620   1.390       .  A
C2620      H2624   1.083       .  S
C2625      S2631   1.720       .  A
C2625      C2630   1.385       .  A
C2625      C2626   1.410       .  A
C2626      C2627   1.411       .  A
C2626      H2637   1.083       .  S
C2627      C2636   1.382       .  A
C2627      C2628   1.387       .  A
C2628      S2634   1.703       .  A
C2628      C2629   1.399       .  A
C2629      C2630   1.400       .  A
C2629      H2638   1.084       .  S
C2630      C2633   1.369       .  A
S2631      C2632   1.728       .  A
C2632      C2633   1.388       .  A
C2633      H2639   1.084       .  S
S2634      C2635   1.721       .  A
C2635      C2636   1.392       .  A
C2636      H2640   1.083       .  S
C2641      S2647   1.710       .  A
C2641      C2646   1.387       .  A
C2641      C2642   1.401       .  A
C2642      C2643   1.402       .  A
C2642      H2653   1.083       .  S
C2643      C2652   1.367       .  A
C2643      C2644   1.387       .  A
C2644      S2650   1.709       .  A
C2644      C2645   1.400       .  A
C2645      C2646   1.402       .  A
C2645      H2654   1.083       .  S
C2646      C2649   1.367       .  A
S2647      C2648   1.722       .  A
C2648      C2649   1.386       .  A
C2649      H2655   1.083       .  S
S2650      C2651   1.720       .  A
C2651      C2652   1.385       .  A
C2652      H2656   1.083       .  S
C2657      S2663   1.710       .  A
C2657      C2662   1.387       .  A
C2657      C2658   1.403       .  A
C2658      C2659   1.404       .  A
C2658      H2669   1.083       .  S
C2659      C2668   1.372       .  A
C2659      C2660   1.387       .  A
C2660      S2666   1.710       .  A
C2660      C2661   1.403       .  A
C2661      C2662   1.404       .  A
C2661      H2670   1.083       .  S
C2662      C2665   1.372       .  A
S2663      C2664   1.722       .  A
C2664      C2665   1.387       .  A
C2665      H2671   1.083       .  S
S2666      C2667   1.722       .  A
C2667      C2668   1.386       .  A
C2668      H2672   1.083       .  S
C2673      S2679   1.715       .  A
C2673      C2678   1.386       .  A
C2673      C2674   1.407       .  A
C2674      C2675   1.407       .  A
C2674      H2685   1.083       .  S
C2675      C2684   1.377       .  A
C2675      C2676   1.387       .  A
C2676      S2682   1.709       .  A
C2676      C2677   1.403       .  A
C2677      C2678   1.404       .  A
C2677      H2686   1.083       .  S
C2678      C2681   1.372       .  A
S2679      C2680   1.726       .  A
C2680      C2681   1.390       .  A
C2681      H2687   1.083       .  S
S2682      C2683   1.724       .  A
C2683      C2684   1.390       .  A
C2684      H2688   1.083       .  S
C2689      S2695   1.718       .  A
C2689      C2694   1.386       .  A
C2689      C2690   1.412       .  A
C2690      C2691   1.411       .  A
C2690      H2701   1.083       .  S
C2691      C2700   1.384       .  A
C2691      C2692   1.386       .  A
C2692      S2698   1.706       .  A
C2692      C2693   1.403       .  A
C2693      C2694   1.402       .  A
C2693      H2702   1.083       .  S
C2694      C2697   1.375       .  A
S2695      C2696   1.731       .  A
C2696      C2697   1.388       .  A
C2697      H2703   1.083       .  S
S2698      C2699   1.725       .  A
C2699      C2700   1.394       .  A
C2700      H2704   1.083       .  S
C2705      S2711   1.717       .  A
C2705      C2710   1.386       .  A
C2705      C2706   1.411       .  A
C2706      C2707   1.411       .  A
C2706      H2717   1.083       .  S
C2707      C2716   1.385       .  A
C2707      C2708   1.387       .  A
C2708      S2714   1.698       .  A
C2708      C2709   1.398       .  A
C2709      C2710   1.398       .  A
C2709      H2718   1.084       .  S
C2710      C2713   1.369       .  A
S2711      C2712   1.728       .  A
C2712      C2713   1.385       .  A
C2713      H2719   1.084       .  S
S2714      C2715   1.724       .  A
C2715      C2716   1.394       .  A
C2716      H2720   1.083       .  S
C2721      S2727   1.713       .  A
C2721      C2726   1.387       .  A
C2721      C2722   1.407       .  A
C2722      C2723   1.408       .  A
C2722      H2733   1.083       .  S
C2723      C2732   1.378       .  A
C2723      C2724   1.388       .  A
C2724      S2730   1.701       .  A
C2724      C2725   1.398       .  A
C2725      C2726   1.398       .  A
C2725      H2734   1.083       .  S
C2726      C2729   1.368       .  A
S2727      C2728   1.724       .  A
C2728      C2729   1.382       .  A
C2729      H2735   1.084       .  S
S2730      C2731   1.718       .  A
C2731      C2732   1.389       .  A
C2732      H2736   1.083       .  S
C2737      S2743   1.707       .  A
C2737      C2742   1.387       .  A
C2737      C2738   1.402       .  A
C2738      C2739   1.403   1_565  A
C2738      H2749   1.083   1_565  S
C2739      C2748   1.373       .  A
C2739      C2740   1.388   1_545  A
C2740      S2746   1.700   1_565  A
C2740      C2741   1.398       .  A
C2741      C2742   1.398       .  A
C2741      H2750   1.083       .  S
C2742      C2745   1.367       .  A
S2743      C2744   1.723       .  A
C2744      C2745   1.385       .  A
C2745      H2751   1.083       .  S
S2746      C2747   1.720       .  A
C2747      C2748   1.384       .  A
C2748      H2752   1.083       .  S
C2753      S2759   1.711       .  A
C2753      C2758   1.387       .  A
C2753      C2754   1.405       .  A
C2754      C2755   1.405   1_565  A
C2754      H2765   1.083   1_565  S
C2755      C2764   1.377       .  A
C2755      C2756   1.388   1_545  A
C2756      S2762   1.700   1_565  A
C2756      C2757   1.399       .  A
C2757      C2758   1.399       .  A
C2757      H2766   1.084       .  S
C2758      C2761   1.369       .  A
S2759      C2760   1.725       .  A
C2760      C2761   1.386       .  A
C2761      H2767   1.084       .  S
S2762      C2763   1.722       .  A
C2763      C2764   1.386       .  A
C2764      H2768   1.083       .  S
C2769      S2775   1.698       .  A
C2769      C2774   1.388       .  A
C2769      C2770   1.395   1_565  A
C2770      C2771   1.397       .  A
C2770      H2781   1.083       .  S
C2771      C2780   1.364       .  A
C2771      C2772   1.386       .  A
C2772      S2778   1.718       .  A
C2772      C2773   1.409   1_545  A
C2773      C2774   1.410       .  A
C2773      H2782   1.083       .  S
C2774      C2777   1.379       .  A
S2775      C2776   1.717       .  A
C2776      C2777   1.388       .  A
C2777      H2783   1.083       .  S
S2778      C2779   1.727       .  A
C2779      C2780   1.384       .  A
C2780      H2784   1.084       .  S
C2785      S2791   1.715       .  A
C2785      C2790   1.387       .  A
C2785      C2786   1.408       .  A
C2786      C2787   1.408       .  A
C2786      H2797   1.083       .  S
C2787      C2796   1.378       .  A
C2787      C2788   1.387       .  A
C2788      S2794   1.704       .  A
C2788      C2789   1.401       .  A
C2789      C2790   1.401       .  A
C2789      H2798   1.083       .  S
C2790      C2793   1.371       .  A
S2791      C2792   1.724       .  A
C2792      C2793   1.384       .  A
C2793      H2799   1.083       .  S
S2794      C2795   1.724       .  A
C2795      C2796   1.390       .  A
C2796      H2800   1.083       .  S
C2801      S2807   1.718       .  A
C2801      C2806   1.386       .  A
C2801      C2802   1.410       .  A
C2802      C2803   1.410       .  A
C2802      H2813   1.083       .  S
C2803      C2812   1.381       .  A
C2803      C2804   1.387       .  A
C2804      S2810   1.699       .  A
C2804      C2805   1.398       .  A
C2805      C2806   1.398       .  A
C2805      H2814   1.084       .  S
C2806      C2809   1.368       .  A
S2807      C2808   1.726       .  A
C2808      C2809   1.384       .  A
C2809      H2815   1.084       .  S
S2810      C2811   1.723       .  A
C2811      C2812   1.392       .  A
C2812      H2816   1.083       .  S
C2817      S2823   1.711       .  A
C2817      C2822   1.386       .  A
C2817      C2818   1.402   1_554  A
C2818      C2819   1.405   1_565  A
C2818      H2829   1.083       .  S
C2819      C2828   1.371       .  A
C2819      C2820   1.386   1_556  A
C2820      S2826   1.710       .  A
C2820      C2821   1.402       .  A
C2821      C2822   1.404   1_545  A
C2821      H2830   1.084       .  S
C2822      C2825   1.370       .  A
S2823      C2824   1.721       .  A
C2824      C2825   1.386       .  A
C2825      H2831   1.084       .  S
S2826      C2827   1.722   1_554  A
C2827      C2828   1.387       .  A
C2828      H2832   1.084       .  S
C2833      S2839   1.703       .  A
C2833      C2838   1.387       .  A
C2833      C2834   1.401       .  A
C2834      C2835   1.400       .  A
C2834      H2845   1.083       .  S
C2835      C2844   1.370       .  A
C2835      C2836   1.387       .  A
C2836      S2842   1.707       .  A
C2836      C2837   1.404       .  A
C2837      C2838   1.404       .  A
C2837      H2846   1.083       .  S
C2838      C2841   1.375       .  A
S2839      C2840   1.724       .  A
C2840      C2841   1.388       .  A
C2841      H2847   1.083       .  S
S2842      C2843   1.725       .  A
C2843      C2844   1.386       .  A
C2844      H2848   1.083       .  S
C2849      S2855   1.707       .  A
C2849      C2854   1.387       .  A
C2849      C2850   1.404       .  A
C2850      C2851   1.404       .  A
C2850      H2861   1.083       .  S
C2851      C2860   1.376       .  A
C2851      C2852   1.386       .  A
C2852      S2858   1.713       .  A
C2852      C2853   1.409       .  A
C2853      C2854   1.408       .  A
C2853      H2862   1.083       .  S
C2854      C2857   1.383       .  A
S2855      C2856   1.725       .  A
C2856      C2857   1.392       .  A
C2857      H2863   1.083       .  S
S2858      C2859   1.726       .  A
C2859      C2860   1.389       .  A
C2860      H2864   1.083       .  S
C2865      S2871   1.720       .  A
C2865      C2870   1.386       .  A
C2865      C2866   1.411       .  A
C2866      C2867   1.412       .  A
C2866      H2877   1.083       .  S
C2867      C2876   1.381       .  A
C2867      C2868   1.388       .  A
C2868      S2874   1.696       .  A
C2868      C2869   1.394       .  A
C2869      C2870   1.395       .  A
C2869      H2878   1.084       .  S
C2870      C2873   1.362       .  A
S2871      C2872   1.729       .  A
C2872      C2873   1.383       .  A
C2873      H2879   1.084       .  S
S2874      C2875   1.720       .  A
C2875      C2876   1.392       .  A
C2876      H2880   1.083       .  S
C2881      S2887   1.707       .  A
C2881      C2886   1.388       .  A
C2881      C2882   1.402       .  A
C2882      C2883   1.403       .  A
C2882      H2893   1.083       .  S
C2883      C2892   1.372       .  A
C2883      C2884   1.388       .  A
C2884      S2890   1.697       .  A
C2884      C2885   1.396       .  A
C2885      C2886   1.396       .  A
C2885      H2894   1.083       .  S
C2886      C2889   1.365       .  A
S2887      C2888   1.719       .  A
C2888      C2889   1.380       .  A
C2889      H2895   1.084       .  S
S2890      C2891   1.717       .  A
C2891      C2892   1.385       .  A
C2892      H2896   1.083       .  S
C2897      S2903   1.702       .  A
C2897      C2902   1.387       .  A
C2897      C2898   1.401       .  A
C2898      C2899   1.400       .  A
C2898      H2909   1.083       .  S
C2899      C2908   1.373       .  A
C2899      C2900   1.388   1_556  A
C2900      S2906   1.703       .  A
C2900      C2901   1.403   1_554  A
C2901      C2902   1.402       .  A
C2901      H2910   1.083   1_556  S
C2902      C2905   1.374       .  A
S2903      C2904   1.723       .  A
C2904      C2905   1.388       .  A
C2905      H2911   1.083       .  S
S2906      C2907   1.721       .  A
C2907      C2908   1.383   1_554  A
C2908      H2912   1.083       .  S
C2913      S2919   1.709       .  A
C2913      C2918   1.387       .  A
C2913      C2914   1.405       .  A
C2914      C2915   1.405       .  A
C2914      H2925   1.083       .  S
C2915      C2924   1.375       .  A
C2915      C2916   1.387       .  A
C2916      S2922   1.701       .  A
C2916      C2917   1.400       .  A
C2917      C2918   1.400       .  A
C2917      H2926   1.083       .  S
C2918      C2921   1.370       .  A
S2919      C2920   1.724       .  A
C2920      C2921   1.385       .  A
C2921      H2927   1.083       .  S
S2922      C2923   1.720       .  A
C2923      C2924   1.387       .  A
C2924      H2928   1.084       .  S
C2929      S2935   1.699       .  A
C2929      C2934   1.388       .  A
C2929      C2930   1.398       .  A
C2930      C2931   1.398       .  A
C2930      H2941   1.083       .  S
C2931      C2940   1.368       .  A
C2931      C2932   1.386       .  A
C2932      S2938   1.717       .  A
C2932      C2933   1.409       .  A
C2933      C2934   1.410       .  A
C2933      H2942   1.083       .  S
C2934      C2937   1.382       .  A
S2935      C2936   1.719       .  A
C2936      C2937   1.390       .  A
C2937      H2943   1.083       .  S
S2938      C2939   1.726       .  A
C2939      C2940   1.386       .  A
C2940      H2944   1.084       .  S
C2945      S2951   1.717       .  A
C2945      C2950   1.387       .  A
C2945      C2946   1.409       .  A
C2946      C2947   1.409       .  A
C2946      H2957   1.083       .  S
C2947      C2956   1.381       .  A
C2947      C2948   1.387       .  A
C2948      S2954   1.698       .  A
C2948      C2949   1.397       .  A
C2949      C2950   1.397       .  A
C2949      H2958   1.083       .  S
C2950      C2953   1.366       .  A
S2951      C2952   1.725       .  A
C2952      C2953   1.383       .  A
C2953      H2959   1.084       .  S
S2954      C2955   1.724       .  A
C2955      C2956   1.391       .  A
C2956      H2960   1.083       .  S
C2961      S2967   1.718       .  A
C2961      C2966   1.387       .  A
C2961      C2962   1.411       .  A
C2962      C2963   1.411       .  A
C2962      H2973   1.083       .  S
C2963      C2972   1.383   1_554  A
C2963      C2964   1.387       .  A
C2964      S2970   1.694   1_554  A
C2964      C2965   1.395       .  A
C2965      C2966   1.395       .  A
C2965      H2974   1.084       .  S
C2966      C2969   1.365       .  A
S2967      C2968   1.726       .  A
C2968      C2969   1.380       .  A
C2969      H2975   1.084       .  S
S2970      C2971   1.721       .  A
C2971      C2972   1.393       .  A
C2972      H2976   1.083       .  S
C2977      S2983   1.702       .  A
C2977      C2982   1.386       .  A
C2977      C2978   1.403       .  A
C2978      C2979   1.403       .  A
C2978      H2989   1.084       .  S
C2979      C2988   1.375       .  A
C2979      C2980   1.386       .  A
C2980      S2986   1.707       .  A
C2980      C2981   1.405       .  A
C2981      C2982   1.405       .  A
C2981      H2990   1.083       .  S
C2982      C2985   1.378       .  A
S2983      C2984   1.721       .  A
C2984      C2985   1.388       .  A
C2985      H2991   1.083       .  S
S2986      C2987   1.722       .  A
C2987      C2988   1.387       .  A
C2988      H2992   1.083       .  S
C2993      S2999   1.718       .  A
C2993      C2998   1.386       .  A
C2993      C2994   1.409       .  A
C2994      C2995   1.410       .  A
C2994      H3005   1.083       .  S
C2995      C3004   1.380       .  A
C2995      C2996   1.387       .  A
C2996      S3002   1.702       .  A
C2996      C2997   1.398       .  A
C2997      C2998   1.399       .  A
C2997      H3006   1.084       .  S
C2998      C3001   1.367       .  A
S2999      C3000   1.727       .  A
C3000      C3001   1.386       .  A
C3001      H3007   1.084       .  S
S3002      C3003   1.721       .  A
C3003      C3004   1.391       .  A
C3004      H3008   1.083       .  S
C3009      S3015   1.709       .  A
C3009      C3014   1.387       .  A
C3009      C3010   1.402       .  A
C3010      C3011   1.403       .  A
C3010      H3021   1.083       .  S
C3011      C3020   1.371       .  A
C3011      C3012   1.388       .  A
C3012      S3018   1.708       .  A
C3012      C3013   1.401       .  A
C3013      C3014   1.402       .  A
C3013      H3022   1.083       .  S
C3014      C3017   1.369       .  A
S3015      C3016   1.723       .  A
C3016      C3017   1.386       .  A
C3017      H3023   1.083       .  S
S3018      C3019   1.720       .  A
C3019      C3020   1.385       .  A
C3020      H3024   1.083       .  S
C3025      S3031   1.714       .  A
C3025      C3030   1.386       .  A
C3025      C3026   1.407   1_565  A
C3026      C3027   1.407       .  A
C3026      H3037   1.083       .  S
C3027      C3036   1.377       .  A
C3027      C3028   1.386       .  A
C3028      S3034   1.709       .  A
C3028      C3029   1.404   1_545  A
C3029      C3030   1.404       .  A
C3029      H3038   1.083       .  S
C3030      C3033   1.375       .  A
S3031      C3032   1.726       .  A
C3032      C3033   1.388       .  A
C3033      H3039   1.083       .  S
S3034      C3035   1.725       .  A
C3035      C3036   1.391       .  A
C3036      H3040   1.083       .  S
C3041      S3047   1.703       .  A
C3041      C3046   1.387       .  A
C3041      C3042   1.402       .  A
C3042      C3043   1.401       .  A
C3042      H3053   1.083       .  S
C3043      C3052   1.373       .  A
C3043      C3044   1.387       .  A
C3044      S3050   1.706       .  A
C3044      C3045   1.403       .  A
C3045      C3046   1.403       .  A
C3045      H3054   1.083       .  S
C3046      C3049   1.374       .  A
S3047      C3048   1.721       .  A
C3048      C3049   1.387       .  A
C3049      H3055   1.083       .  S
S3050      C3051   1.725       .  A
C3051      C3052   1.386       .  A
C3052      H3056   1.083       .  S
C3057      S3063   1.714       .  A
C3057      C3062   1.387       .  A
C3057      C3058   1.408       .  A
C3058      C3059   1.407       .  A
C3058      H3069   1.083       .  S
C3059      C3068   1.379       .  A
C3059      C3060   1.387       .  A
C3060      S3066   1.697       .  A
C3060      C3061   1.397       .  A
C3061      C3062   1.397       .  A
C3061      H3070   1.084       .  S
C3062      C3065   1.368       .  A
S3063      C3064   1.725       .  A
C3064      C3065   1.383       .  A
C3065      H3071   1.084       .  S
S3066      C3067   1.723       .  A
C3067      C3068   1.390       .  A
C3068      H3072   1.083       .  S
C3073      S3079   1.705   1_554  A
C3073      C3078   1.388       .  A
C3073      C3074   1.403       .  A
C3074      C3075   1.403       .  A
C3074      H3085   1.084       .  S
C3075      C3084   1.372       .  A
C3075      C3076   1.389       .  A
C3076      S3082   1.696       .  A
C3076      C3077   1.394       .  A
C3077      C3078   1.394       .  A
C3077      H3086   1.084       .  S
C3078      C3081   1.364       .  A
S3079      C3080   1.725   1_556  A
C3080      C3081   1.380       .  A
C3081      H3087   1.084       .  S
S3082      C3083   1.713       .  A
C3083      C3084   1.383       .  A
C3084      H3088   1.084       .  S
C3089      S3095   1.710       .  A
C3089      C3094   1.387       .  A
C3089      C3090   1.406   1_565  A
C3090      C3091   1.406       .  A
C3090      H3101   1.083       .  S
C3091      C3100   1.376       .  A
C3091      C3092   1.388       .  A
C3092      S3098   1.704       .  A
C3092      C3093   1.401   1_545  A
C3093      C3094   1.401       .  A
C3093      H3102   1.083       .  S
C3094      C3097   1.372       .  A
S3095      C3096   1.726       .  A
C3096      C3097   1.385       .  A
C3097      H3103   1.083       .  S
S3098      C3099   1.721       .  A
C3099      C3100   1.388       .  A
C3100      H3104   1.083       .  S
C3105      S3111   1.720       .  A
C3105      C3110   1.385       .  A
C3105      C3106   1.411   1_554  A
C3106      C3107   1.411       .  A
C3106      H3117   1.083       .  S
C3107      C3116   1.381       .  A
C3107      C3108   1.388       .  A
C3108      S3114   1.700       .  A
C3108      C3109   1.397       .  A
C3109      C3110   1.398   1_556  A
C3109      H3118   1.084       .  S
C3110      C3113   1.366       .  A
S3111      C3112   1.729       .  A
C3112      C3113   1.386       .  A
C3113      H3119   1.084       .  S
S3114      C3115   1.720       .  A
C3115      C3116   1.391       .  A
C3116      H3120   1.083       .  S
C3121      S3127   1.695       .  A
C3121      C3126   1.388       .  A
C3121      C3122   1.393       .  A
C3122      C3123   1.394       .  A
C3122      H3133   1.083       .  S
C3123      C3132   1.362       .  A
C3123      C3124   1.386       .  A
C3124      S3130   1.720       .  A
C3124      C3125   1.411       .  A
C3125      C3126   1.411       .  A
C3125      H3134   1.083       .  S
C3126      C3129   1.381       .  A
S3127      C3128   1.717       .  A
C3128      C3129   1.391       .  A
C3129      H3135   1.083       .  S
S3130      C3131   1.726       .  A
C3131      C3132   1.381       .  A
C3132      H3136   1.084       .  S
C3137      S3143   1.706       .  A
C3137      C3142   1.387       .  A
C3137      C3138   1.404       .  A
C3138      C3139   1.403       .  A
C3138      H3149   1.083       .  S
C3139      C3148   1.376       .  A
C3139      C3140   1.387       .  A
C3140      S3146   1.710       .  A
C3140      C3141   1.407       .  A
C3141      C3142   1.406       .  A
C3141      H3150   1.083       .  S
C3142      C3145   1.379       .  A
S3143      C3144   1.722       .  A
C3144      C3145   1.388       .  A
C3145      H3151   1.083       .  S
S3146      C3147   1.726       .  A
C3147      C3148   1.388       .  A
C3148      H3152   1.083       .  S
C3153      S3159   1.716       .  A
C3153      C3158   1.386       .  A
C3153      C3154   1.409       .  A
C3154      C3155   1.409       .  A
C3154      H3165   1.083       .  S
C3155      C3164   1.378       .  A
C3155      C3156   1.388       .  A
C3156      S3162   1.693       .  A
C3156      C3157   1.391       .  A
C3157      C3158   1.392       .  A
C3157      H3166   1.084       .  S
C3158      C3161   1.360       .  A
S3159      C3160   1.728       .  A
C3160      C3161   1.381       .  A
C3161      H3167   1.084       .  S
S3162      C3163   1.715       .  A
C3163      C3164   1.390       .  A
C3164      H3168   1.083       .  S
C3169      S3175   1.701       .  A
C3169      C3174   1.387       .  A
C3169      C3170   1.397       .  A
C3170      C3171   1.398       .  A
C3170      H3181   1.084       .  S
C3171      C3180   1.367       .  A
C3171      C3172   1.385       .  A
C3172      S3178   1.723       .  A
C3172      C3173   1.413       .  A
C3173      C3174   1.413       .  A
C3173      H3182   1.083       .  S
C3174      C3177   1.383       .  A
S3175      C3176   1.721       .  A
C3176      C3177   1.393       .  A
C3177      H3183   1.083       .  S
S3178      C3179   1.730       .  A
C3179      C3180   1.385       .  A
C3180      H3184   1.084       .  S
C3185      S3191   1.709       .  A
C3185      C3190   1.387       .  A
C3185      C3186   1.403       .  A
C3186      C3187   1.404       .  A
C3186      H3197   1.083       .  S
C3187      C3196   1.373       .  A
C3187      C3188   1.387       .  A
C3188      S3194   1.708       .  A
C3188      C3189   1.402       .  A
C3189      C3190   1.403       .  A
C3189      H3198   1.083       .  S
C3190      C3193   1.371       .  A
S3191      C3192   1.721       .  A
C3192      C3193   1.386       .  A
C3193      H3199   1.083       .  S
S3194      C3195   1.722       .  A
C3195      C3196   1.387       .  A
C3196      H3200   1.083       .  S
C3201      S3207   1.706       .  A
C3201      C3206   1.387       .  A
C3201      C3202   1.398       .  A
C3202      C3203   1.400       .  A
C3202      H3213   1.083       .  S
C3203      C3212   1.367       .  A
C3203      C3204   1.387       .  A
C3204      S3210   1.712       .  A
C3204      C3205   1.404       .  A
C3205      C3206   1.405       .  A
C3205      H3214   1.083       .  S
C3206      C3209   1.372       .  A
S3207      C3208   1.718       .  A
C3208      C3209   1.388       .  A
C3209      H3215   1.083       .  S
S3210      C3211   1.723       .  A
C3211      C3212   1.385       .  A
C3212      H3216   1.084       .  S
C3217      S3223   1.708       .  A
C3217      C3222   1.386       .  A
C3217      C3218   1.403       .  A
C3218      C3219   1.403       .  A
C3218      H3229   1.083       .  S
C3219      C3228   1.373       .  A
C3219      C3220   1.386       .  A
C3220      S3226   1.714       .  A
C3220      C3221   1.408       .  A
C3221      C3222   1.408       .  A
C3221      H3230   1.083       .  S
C3222      C3225   1.379       .  A
S3223      C3224   1.724       .  A
C3224      C3225   1.392       .  A
C3225      H3231   1.083       .  S
S3226      C3227   1.727       .  A
C3227      C3228   1.388       .  A
C3228      H3232   1.083       .  S
C3233      S3239   1.717       .  A
C3233      C3238   1.386       .  A
C3233      C3234   1.409       .  A
C3234      C3235   1.410       .  A
C3234      H3245   1.083       .  S
C3235      C3244   1.379       .  A
C3235      C3236   1.387       .  A
C3236      S3242   1.706       .  A
C3236      C3237   1.400       .  A
C3237      C3238   1.401       .  A
C3237      H3246   1.083       .  S
C3238      C3241   1.370       .  A
S3239      C3240   1.727       .  A
C3240      C3241   1.387       .  A
C3241      H3247   1.083       .  S
S3242      C3243   1.724       .  A
C3243      C3244   1.392       .  A
C3244      H3248   1.083       .  S
C3249      S3255   1.697       .  A
C3249      C3254   1.388       .  A
C3249      C3250   1.396       .  A
C3250      C3251   1.396       .  A
C3250      H3261   1.084       .  S
C3251      C3260   1.366       .  A
C3251      C3252   1.386       .  A
C3252      S3258   1.718       .  A
C3252      C3253   1.411       .  A
C3253      C3254   1.411       .  A
C3253      H3262   1.083       .  S
C3254      C3257   1.382       .  A
S3255      C3256   1.721       .  A
C3256      C3257   1.391       .  A
C3257      H3263   1.083       .  S
S3258      C3259   1.727       .  A
C3259      C3260   1.383       .  A
C3260      H3264   1.084       .  S
C3265      S3271   1.695       .  A
C3265      C3270   1.388       .  A
C3265      C3266   1.394       .  A
C3266      C3267   1.395       .  A
C3266      H3277   1.084       .  S
C3267      C3276   1.363       .  A
C3267      C3268   1.386       .  A
C3268      S3274   1.719       .  A
C3268      C3269   1.410       .  A
C3269      C3270   1.411       .  A
C3269      H3278   1.083       .  S
C3270      C3273   1.381       .  A
S3271      C3272   1.719       .  A
C3272      C3273   1.390       .  A
C3273      H3279   1.083       .  S
S3274      C3275   1.727       .  A
C3275      C3276   1.383       .  A
C3276      H3280   1.084       .  S
C3281      S3287   1.711       .  A
C3281      C3286   1.387       .  A
C3281      C3282   1.408       .  A
C3282      C3283   1.407       .  A
C3282      H3293   1.083       .  S
C3283      C3292   1.381       .  A
C3283      C3284   1.386       .  A
C3284      S3290   1.710       .  A
C3284      C3285   1.407       .  A
C3285      C3286   1.406       .  A
C3285      H3294   1.083       .  S
C3286      C3289   1.380       .  A
S3287      C3288   1.726       .  A
C3288      C3289   1.389       .  A
C3289      H3295   1.083       .  S
S3290      C3291   1.726       .  A
C3291      C3292   1.391       .  A
C3292      H3296   1.083       .  S
C3297      S3303   1.704       .  A
C3297      C3302   1.387       .  A
C3297      C3298   1.401       .  A
C3298      C3299   1.401       .  A
C3298      H3309   1.083       .  S
C3299      C3308   1.373       .  A
C3299      C3300   1.387       .  A
C3300      S3306   1.714       .  A
C3300      C3301   1.410       .  A
C3301      C3302   1.409       .  A
C3301      H3310   1.083       .  S
C3302      C3305   1.381       .  A
S3303      C3304   1.721       .  A
C3304      C3305   1.392       .  A
C3305      H3311   1.083       .  S
S3306      C3307   1.728       .  A
C3307      C3308   1.385       .  A
C3308      H3312   1.083       .  S
C3313      S3319   1.706       .  A
C3313      C3318   1.387       .  A
C3313      C3314   1.402       .  A
C3314      C3315   1.402       .  A
C3314      H3325   1.083       .  S
C3315      C3324   1.373       .  A
C3315      C3316   1.385       .  A
C3316      S3322   1.721       .  A
C3316      C3317   1.413       .  A
C3317      C3318   1.413       .  A
C3317      H3326   1.083       .  S
C3318      C3321   1.385       .  A
S3319      C3320   1.724       .  A
C3320      C3321   1.394       .  A
C3321      H3327   1.083       .  S
S3322      C3323   1.730       .  A
C3323      C3324   1.389       .  A
C3324      H3328   1.084       .  S
C3329      S3335   1.709       .  A
C3329      C3334   1.386       .  A
C3329      C3330   1.405       .  A
C3330      C3331   1.404       .  A
C3330      H3341   1.083       .  S
C3331      C3340   1.376       .  A
C3331      C3332   1.386       .  A
C3332      S3338   1.715       .  A
C3332      C3333   1.409       .  A
C3333      C3334   1.409       .  A
C3333      H3342   1.083       .  S
C3334      C3337   1.381       .  A
S3335      C3336   1.726       .  A
C3336      C3337   1.392       .  A
C3337      H3343   1.083       .  S
S3338      C3339   1.728       .  A
C3339      C3340   1.389       .  A
C3340      H3344   1.083       .  S
C3345      S3351   1.706       .  A
C3345      C3350   1.387       .  A
C3345      C3346   1.402   1_655  A
C3346      C3347   1.402       .  A
C3346      H3357   1.083       .  S
C3347      C3356   1.373       .  A
C3347      C3348   1.387       .  A
C3348      S3354   1.709       .  A
C3348      C3349   1.404   1_455  A
C3349      C3350   1.404       .  A
C3349      H3358   1.083       .  S
C3350      C3353   1.374       .  A
S3351      C3352   1.719       .  A
C3352      C3353   1.387       .  A
C3353      H3359   1.084       .  S
S3354      C3355   1.726       .  A
C3355      C3356   1.387       .  A
C3356      H3360   1.083       .  S
C3361      S3367   1.706       .  A
C3361      C3366   1.387   1_556  A
C3361      C3362   1.404   1_655  A
C3362      C3363   1.403   1_556  A
C3362      H3373   1.083       .  S
C3363      C3372   1.376       .  A
C3363      C3364   1.387       .  A
C3364      S3370   1.705       .  A
C3364      C3365   1.403   1_455  A
C3365      C3366   1.403       .  A
C3365      H3374   1.083       .  S
C3366      C3369   1.375       .  A
S3367      C3368   1.723       .  A
C3368      C3369   1.387   1_556  A
C3369      H3375   1.083       .  S
S3370      C3371   1.725       .  A
C3371      C3372   1.388       .  A
C3372      H3376   1.083       .  S
C3377      S3383   1.720       .  A
C3377      C3382   1.385       .  A
C3377      C3378   1.411       .  A
C3378      C3379   1.411       .  A
C3378      H3389   1.083       .  S
C3379      C3388   1.383       .  A
C3379      C3380   1.387       .  A
C3380      S3386   1.703       .  A
C3380      C3381   1.400       .  A
C3381      C3382   1.401       .  A
C3381      H3390   1.084       .  S
C3382      C3385   1.370       .  A
S3383      C3384   1.728       .  A
C3384      C3385   1.389       .  A
C3385      H3391   1.084       .  S
S3386      C3387   1.725       .  A
C3387      C3388   1.393       .  A
C3388      H3392   1.083       .  S
C3393      S3399   1.706       .  A
C3393      C3398   1.386       .  A
C3393      C3394   1.403       .  A
C3394      C3395   1.402       .  A
C3394      H3405   1.083       .  S
C3395      C3404   1.374       .  A
C3395      C3396   1.386       .  A
C3396      S3402   1.715       .  A
C3396      C3397   1.409       .  A
C3397      C3398   1.409       .  A
C3397      H3406   1.083       .  S
C3398      C3401   1.381       .  A
S3399      C3400   1.725       .  A
C3400      C3401   1.393       .  A
C3401      H3407   1.083       .  S
S3402      C3403   1.728       .  A
C3403      C3404   1.388       .  A
C3404      H3408   1.083       .  S
C3409      S3415   1.703   1_655  A
C3409      C3414   1.388   1_655  A
C3409      C3410   1.401       .  A
C3410      C3411   1.400       .  A
C3410      H3421   1.083       .  S
C3411      C3420   1.371       .  A
C3411      C3412   1.388       .  A
C3412      S3418   1.701       .  A
C3412      C3413   1.400   1_655  A
C3413      C3414   1.400       .  A
C3413      H3422   1.083       .  S
C3414      C3417   1.370       .  A
S3415      C3416   1.722       .  A
C3416      C3417   1.384       .  A
C3417      H3423   1.083       .  S
S3418      C3419   1.722       .  A
C3419      C3420   1.384       .  A
C3420      H3424   1.083       .  S
C3425      S3431   1.698       .  A
C3425      C3430   1.388       .  A
C3425      C3426   1.396       .  A
C3426      C3427   1.397       .  A
C3426      H3437   1.084       .  S
C3427      C3436   1.365       .  A
C3427      C3428   1.386       .  A
C3428      S3434   1.716       .  A
C3428      C3429   1.408       .  A
C3429      C3430   1.409       .  A
C3429      H3438   1.083       .  S
C3430      C3433   1.379       .  A
S3431      C3432   1.718       .  A
C3432      C3433   1.389       .  A
C3433      H3439   1.083       .  S
S3434      C3435   1.727       .  A
C3435      C3436   1.385       .  A
C3436      H3440   1.084       .  S
C3441      S3447   1.698       .  A
C3441      C3446   1.387       .  A
C3441      C3442   1.397       .  A
C3442      C3443   1.398       .  A
C3442      H3453   1.083       .  S
C3443      C3452   1.368       .  A
C3443      C3444   1.387       .  A
C3444      S3450   1.716       .  A
C3444      C3445   1.410       .  A
C3445      C3446   1.409       .  A
C3445      H3454   1.083       .  S
C3446      C3449   1.381       .  A
S3447      C3448   1.723       .  A
C3448      C3449   1.392       .  A
C3449      H3455   1.083       .  S
S3450      C3451   1.726       .  A
C3451      C3452   1.383       .  A
C3452      H3456   1.084       .  S
C3457      S3463   1.712       .  A
C3457      C3462   1.387       .  A
C3457      C3458   1.403   1_455  A
C3458      C3459   1.405       .  A
C3458      H3469   1.083   1_655  S
C3459      C3468   1.370       .  A
C3459      C3460   1.387       .  A
C3460      S3466   1.710       .  A
C3460      C3461   1.400       .  A
C3461      C3462   1.403   1_655  A
C3461      H3470   1.083       .  S
C3462      C3465   1.367       .  A
S3463      C3464   1.723       .  A
C3464      C3465   1.386       .  A
C3465      H3471   1.084       .  S
S3466      C3467   1.721       .  A
C3467      C3468   1.389       .  A
C3468      H3472   1.083       .  S
C3473      S3479   1.698       .  A
C3473      C3478   1.388   1_554  A
C3473      C3474   1.394   1_554  A
C3474      C3475   1.395       .  A
C3474      H3485   1.084   1_556  S
C3475      C3484   1.364       .  A
C3475      C3476   1.386       .  A
C3476      S3482   1.715       .  A
C3476      C3477   1.408       .  A
C3477      C3478   1.409       .  A
C3477      H3486   1.083       .  S
C3478      C3481   1.377       .  A
S3479      C3480   1.716       .  A
C3480      C3481   1.388   1_554  A
C3481      H3487   1.083       .  S
S3482      C3483   1.728       .  A
C3483      C3484   1.383       .  A
C3484      H3488   1.084       .  S
C3489      S3495   1.709       .  A
C3489      C3494   1.386       .  A
C3489      C3490   1.401       .  A
C3490      C3491   1.403       .  A
C3490      H3501   1.083       .  S
C3491      C3500   1.369       .  A
C3491      C3492   1.387       .  A
C3492      S3498   1.710       .  A
C3492      C3493   1.401       .  A
C3493      C3494   1.404       .  A
C3493      H3502   1.083       .  S
C3494      C3497   1.367       .  A
S3495      C3496   1.719       .  A
C3496      C3497   1.386       .  A
C3497      H3503   1.084       .  S
S3498      C3499   1.723       .  A
C3499      C3500   1.387       .  A
C3500      H3504   1.083       .  S
C3505      S3511   1.708       .  A
C3505      C3510   1.388       .  A
C3505      C3506   1.400       .  A
C3506      C3507   1.402       .  A
C3506      H3517   1.083       .  S
C3507      C3516   1.370       .  A
C3507      C3508   1.389       .  A
C3508      S3514   1.703       .  A
C3508      C3509   1.399       .  A
C3509      C3510   1.400       .  A
C3509      H3518   1.083       .  S
C3510      C3513   1.366       .  A
S3511      C3512   1.718       .  A
C3512      C3513   1.383       .  A
C3513      H3519   1.084       .  S
S3514      C3515   1.719       .  A
C3515      C3516   1.382       .  A
C3516      H3520   1.083       .  S
C3521      S3527   1.716       .  A
C3521      C3526   1.386       .  A
C3521      C3522   1.409       .  A
C3522      C3523   1.409       .  A
C3522      H3533   1.083       .  S
C3523      C3532   1.379       .  A
C3523      C3524   1.388       .  A
C3524      S3530   1.699       .  A
C3524      C3525   1.396       .  A
C3525      C3526   1.396       .  A
C3525      H3534   1.084       .  S
C3526      C3529   1.364       .  A
S3527      C3528   1.728       .  A
C3528      C3529   1.383       .  A
C3529      H3535   1.084       .  S
S3530      C3531   1.718       .  A
C3531      C3532   1.389       .  A
C3532      H3536   1.083       .  S
C3537      S3543   1.710       .  A
C3537      C3542   1.388       .  A
C3537      C3538   1.404       .  A
C3538      C3539   1.404       .  A
C3538      H3549   1.083       .  S
C3539      C3548   1.375   1_554  A
C3539      C3540   1.388       .  A
C3540      S3546   1.698   1_554  A
C3540      C3541   1.398       .  A
C3541      C3542   1.398       .  A
C3541      H3550   1.083       .  S
C3542      C3545   1.368       .  A
S3543      C3544   1.722       .  A
C3544      C3545   1.382       .  A
C3545      H3551   1.084       .  S
S3546      C3547   1.723       .  A
C3547      C3548   1.387       .  A
C3548      H3552   1.083       .  S
C3553      S3559   1.712       .  A
C3553      C3558   1.387       .  A
C3553      C3554   1.402       .  A
C3554      C3555   1.404       .  A
C3554      H3565   1.083       .  S
C3555      C3564   1.369       .  A
C3555      C3556   1.386       .  A
C3556      S3562   1.710       .  A
C3556      C3557   1.401       .  A
C3557      C3558   1.403       .  A
C3557      H3566   1.083       .  S
C3558      C3561   1.369       .  A
S3559      C3560   1.720       .  A
C3560      C3561   1.385       .  A
C3561      H3567   1.084       .  S
S3562      C3563   1.721       .  A
C3563      C3564   1.387       .  A
C3564      H3568   1.084       .  S
C3569      S3575   1.710       .  A
C3569      C3574   1.387       .  A
C3569      C3570   1.401       .  A
C3570      C3571   1.403       .  A
C3570      H3581   1.083       .  S
C3571      C3580   1.371       .  A
C3571      C3572   1.387       .  A
C3572      S3578   1.709       .  A
C3572      C3573   1.402       .  A
C3573      C3574   1.403       .  A
C3573      H3582   1.083       .  S
C3574      C3577   1.370       .  A
S3575      C3576   1.719       .  A
C3576      C3577   1.385       .  A
C3577      H3583   1.084       .  S
S3578      C3579   1.724       .  A
C3579      C3580   1.387       .  A
C3580      H3584   1.083       .  S
C3585      S3591   1.703       .  A
C3585      C3590   1.387       .  A
C3585      C3586   1.400   1_655  A
C3586      C3587   1.400       .  A
C3586      H3597   1.084       .  S
C3587      C3596   1.370       .  A
C3587      C3588   1.386       .  A
C3588      S3594   1.714       .  A
C3588      C3589   1.409   1_455  A
C3589      C3590   1.409       .  A
C3589      H3598   1.083       .  S
C3590      C3593   1.380       .  A
S3591      C3592   1.725       .  A
C3592      C3593   1.392       .  A
C3593      H3599   1.083       .  S
S3594      C3595   1.728       .  A
C3595      C3596   1.386       .  A
C3596      H3600   1.084       .  S
C3601      S3607   1.704       .  A
C3601      C3606   1.387       .  A
C3601      C3602   1.402       .  A
C3602      C3603   1.402       .  A
C3602      H3613   1.084       .  S
C3603      C3612   1.373       .  A
C3603      C3604   1.386       .  A
C3604      S3610   1.710       .  A
C3604      C3605   1.407       .  A
C3605      C3606   1.407       .  A
C3605      H3614   1.083       .  S
C3606      C3609   1.380       .  A
S3607      C3608   1.722       .  A
C3608      C3609   1.389       .  A
C3609      H3615   1.083       .  S
S3610      C3611   1.725       .  A
C3611      C3612   1.388       .  A
C3612      H3616   1.084       .  S
C3617      S3623   1.719       .  A
C3617      C3622   1.386       .  A
C3617      C3618   1.407       .  A
C3618      C3619   1.409       .  A
C3618      H3629   1.083       .  S
C3619      C3628   1.376       .  A
C3619      C3620   1.387       .  A
C3620      S3626   1.706       .  A
C3620      C3621   1.399       .  A
C3621      C3622   1.400       .  A
C3621      H3630   1.083       .  S
C3622      C3625   1.365       .  A
S3623      C3624   1.724       .  A
C3624      C3625   1.382       .  A
C3625      H3631   1.081       .  S
S3626      C3627   1.722       .  A
C3627      C3628   1.392       .  A
C3628      H3632   1.083       .  S
C3633      S3639   1.704       .  A
C3633      C3638   1.387       .  A
C3633      C3634   1.402   1_655  A
C3634      C3635   1.401       .  A
C3634      H3645   1.083       .  S
C3635      C3644   1.372       .  A
C3635      C3636   1.386       .  A
C3636      S3642   1.714       .  A
C3636      C3637   1.408       .  A
C3637      C3638   1.408   1_455  A
C3637      H3646   1.083       .  S
C3638      C3641   1.380       .  A
S3639      C3640   1.723       .  A
C3640      C3641   1.390       .  A
C3641      H3647   1.083       .  S
S3642      C3643   1.726       .  A
C3643      C3644   1.387       .  A
C3644      H3648   1.083       .  S
C3649      S3655   1.719       .  A
C3649      C3654   1.386       .  A
C3649      C3650   1.410       .  A
C3650      C3651   1.411   1_554  A
C3650      H3661   1.083       .  S
C3651      C3660   1.379       .  A
C3651      C3652   1.389       .  A
C3652      S3658   1.691       .  A
C3652      C3653   1.390   1_556  A
C3653      C3654   1.392       .  A
C3653      H3662   1.084       .  S
C3654      C3657   1.358       .  A
S3655      C3656   1.729       .  A
C3656      C3657   1.381       .  A
C3657      H3663   1.084       .  S
S3658      C3659   1.716       .  A
C3659      C3660   1.389       .  A
C3660      H3664   1.083       .  S
C3665      S3671   1.717       .  A
C3665      C3670   1.386       .  A
C3665      C3666   1.409       .  A
C3666      C3667   1.410       .  A
C3666      H3677   1.083       .  S
C3667      C3676   1.378       .  A
C3667      C3668   1.388       .  A
C3668      S3674   1.696       .  A
C3668      C3669   1.393       .  A
C3669      C3670   1.394       .  A
C3669      H3678   1.083       .  S
C3670      C3673   1.361       .  A
S3671      C3672   1.726       .  A
C3672      C3673   1.381       .  A
C3673      H3679   1.084       .  S
S3674      C3675   1.716       .  A
C3675      C3676   1.390       .  A
C3676      H3680   1.083       .  S
C3681      S3687   1.709       .  A
C3681      C3686   1.387       .  A
C3681      C3682   1.405       .  A
C3682      C3683   1.405       .  A
C3682      H3693   1.083       .  S
C3683      C3692   1.376       .  A
C3683      C3684   1.387       .  A
C3684      S3690   1.703       .  A
C3684      C3685   1.402       .  A
C3685      C3686   1.402       .  A
C3685      H3694   1.084       .  S
C3686      C3689   1.372       .  A
S3687      C3688   1.725       .  A
C3688      C3689   1.387       .  A
C3689      H3695   1.083       .  S
S3690      C3691   1.721       .  A
C3691      C3692   1.387       .  A
C3692      H3696   1.083       .  S
C3697      S3703   1.720       .  A
C3697      C3702   1.385       .  A
C3697      C3698   1.412       .  A
C3698      C3699   1.412       .  A
C3698      H3709   1.083       .  S
C3699      C3708   1.385       .  A
C3699      C3700   1.387       .  A
C3700      S3706   1.703       .  A
C3700      C3701   1.400       .  A
C3701      C3702   1.401       .  A
C3701      H3710   1.083       .  S
C3702      C3705   1.371       .  A
S3703      C3704   1.729       .  A
C3704      C3705   1.388       .  A
C3705      H3711   1.084       .  S
S3706      C3707   1.721       .  A
C3707      C3708   1.393       .  A
C3708      H3712   1.083       .  S
C3713      S3719   1.719       .  A
C3713      C3718   1.385       .  A
C3713      C3714   1.411       .  A
C3714      C3715   1.411       .  A
C3714      H3725   1.083       .  S
C3715      C3724   1.383       .  A
C3715      C3716   1.387       .  A
C3716      S3722   1.699       .  A
C3716      C3717   1.398       .  A
C3717      C3718   1.399       .  A
C3717      H3726   1.083       .  S
C3718      C3721   1.369       .  A
S3719      C3720   1.729       .  A
C3720      C3721   1.387       .  A
C3721      H3727   1.084       .  S
S3722      C3723   1.724       .  A
C3723      C3724   1.393       .  A
C3724      H3728   1.083       .  S
C3729      S3735   1.701       .  A
C3729      C3734   1.388       .  A
C3729      C3730   1.399   1_554  A
C3730      C3731   1.399       .  A
C3730      H3741   1.084       .  S
C3731      C3740   1.368       .  A
C3731      C3732   1.386       .  A
C3732      S3738   1.712       .  A
C3732      C3733   1.406       .  A
C3733      C3734   1.406   1_556  A
C3733      H3742   1.083       .  S
C3734      C3737   1.377       .  A
S3735      C3736   1.720       .  A
C3736      C3737   1.387       .  A
C3737      H3743   1.083       .  S
S3738      C3739   1.725       .  A
C3739      C3740   1.386       .  A
C3740      H3744   1.084       .  S
C3745      S3751   1.695       .  A
C3745      C3750   1.388       .  A
C3745      C3746   1.393       .  A
C3746      C3747   1.394       .  A
C3746      H3757   1.084       .  S
C3747      C3756   1.362       .  A
C3747      C3748   1.386       .  A
C3748      S3754   1.713       .  A
C3748      C3749   1.407       .  A
C3749      C3750   1.407       .  A
C3749      H3758   1.083       .  S
C3750      C3753   1.377       .  A
S3751      C3752   1.717       .  A
C3752      C3753   1.388       .  A
C3753      H3759   1.083       .  S
S3754      C3755   1.726       .  A
C3755      C3756   1.383       .  A
C3756      H3760   1.084       .  S
C3761      S3767   1.717       .  A
C3761      C3766   1.386       .  A
C3761      C3762   1.409       .  A
C3762      C3763   1.409       .  A
C3762      H3773   1.083       .  S
C3763      C3772   1.381       .  A
C3763      C3764   1.387       .  A
C3764      S3770   1.702       .  A
C3764      C3765   1.400       .  A
C3765      C3766   1.400       .  A
C3765      H3774   1.083       .  S
C3766      C3769   1.370       .  A
S3767      C3768   1.725       .  A
C3768      C3769   1.386       .  A
C3769      H3775   1.084       .  S
S3770      C3771   1.724       .  A
C3771      C3772   1.391       .  A
C3772      H3776   1.083       .  S
C3777      S3783   1.712       .  A
C3777      C3782   1.386       .  A
C3777      C3778   1.407       .  A
C3778      C3779   1.407       .  A
C3778      H3789   1.083       .  S
C3779      C3788   1.381       .  A
C3779      C3780   1.386       .  A
C3780      S3786   1.713       .  A
C3780      C3781   1.408       .  A
C3781      C3782   1.408       .  A
C3781      H3790   1.083       .  S
C3782      C3785   1.380       .  A
S3783      C3784   1.726       .  A
C3784      C3785   1.392       .  A
C3785      H3791   1.083       .  S
S3786      C3787   1.728       .  A
C3787      C3788   1.392       .  A
C3788      H3792   1.083       .  S
C3793      S3799   1.714       .  A
C3793      C3798   1.387       .  A
C3793      C3794   1.409       .  A
C3794      C3795   1.409       .  A
C3794      H3805   1.083       .  S
C3795      C3804   1.381       .  A
C3795      C3796   1.388       .  A
C3796      S3802   1.694       .  A
C3796      C3797   1.395       .  A
C3797      C3798   1.395       .  A
C3797      H3806   1.083       .  S
C3798      C3801   1.366       .  A
S3799      C3800   1.727       .  A
C3800      C3801   1.382       .  A
C3801      H3807   1.084       .  S
S3802      C3803   1.719       .  A
C3803      C3804   1.390       .  A
C3804      H3808   1.083       .  S
C3809      S3815   1.710       .  A
C3809      C3814   1.386       .  A
C3809      C3810   1.404       .  A
C3810      C3811   1.405       .  A
C3810      H3821   1.083       .  S
C3811      C3820   1.376       .  A
C3811      C3812   1.386       .  A
C3812      S3818   1.714       .  A
C3812      C3813   1.408       .  A
C3813      C3814   1.408       .  A
C3813      H3822   1.083       .  S
C3814      C3817   1.379       .  A
S3815      C3816   1.725       .  A
C3816      C3817   1.391       .  A
C3817      H3823   1.083       .  S
S3818      C3819   1.728       .  A
C3819      C3820   1.390       .  A
C3820      H3824   1.083       .  S
C3825      S3831   1.704       .  A
C3825      C3830   1.388       .  A
C3825      C3826   1.400       .  A
C3826      C3827   1.401       .  A
C3826      H3837   1.084       .  S
C3827      C3836   1.370       .  A
C3827      C3828   1.386       .  A
C3828      S3834   1.712       .  A
C3828      C3829   1.406       .  A
C3829      C3830   1.407       .  A
C3829      H3838   1.083       .  S
C3830      C3833   1.378       .  A
S3831      C3832   1.720       .  A
C3832      C3833   1.387       .  A
C3833      H3839   1.083       .  S
S3834      C3835   1.726       .  A
C3835      C3836   1.387       .  A
C3836      H3840   1.083       .  S
C3841      S3847   1.719   1_554  A
C3841      C3846   1.386       .  A
C3841      C3842   1.411       .  A
C3842      C3843   1.411       .  A
C3842      H3853   1.083       .  S
C3843      C3852   1.383       .  A
C3843      C3844   1.387       .  A
C3844      S3850   1.700       .  A
C3844      C3845   1.399       .  A
C3845      C3846   1.399       .  A
C3845      H3854   1.083       .  S
C3846      C3849   1.369   1_554  A
S3847      C3848   1.727       .  A
C3848      C3849   1.385       .  A
C3849      H3855   1.084       .  S
S3850      C3851   1.723       .  A
C3851      C3852   1.393       .  A
C3852      H3856   1.083       .  S
C3857      S3863   1.716       .  A
C3857      C3862   1.386       .  A
C3857      C3858   1.410       .  A
C3858      C3859   1.410       .  A
C3858      H3869   1.083       .  S
C3859      C3868   1.384       .  A
C3859      C3860   1.387       .  A
C3860      S3866   1.703       .  A
C3860      C3861   1.402       .  A
C3861      C3862   1.402       .  A
C3861      H3870   1.083       .  S
C3862      C3865   1.373       .  A
S3863      C3864   1.728       .  A
C3864      C3865   1.389       .  A
C3865      H3871   1.083       .  S
S3866      C3867   1.727       .  A
C3867      C3868   1.392       .  A
C3868      H3872   1.083       .  S
C3873      S3879   1.715       .  A
C3873      C3878   1.386       .  A
C3873      C3874   1.409       .  A
C3874      C3875   1.409       .  A
C3874      H3885   1.083       .  S
C3875      C3884   1.380       .  A
C3875      C3876   1.387       .  A
C3876      S3882   1.699       .  A
C3876      C3877   1.398       .  A
C3877      C3878   1.398       .  A
C3877      H3886   1.084       .  S
C3878      C3881   1.368       .  A
S3879      C3880   1.728       .  A
C3880      C3881   1.385       .  A
C3881      H3887   1.084       .  S
S3882      C3883   1.723       .  A
C3883      C3884   1.391       .  A
C3884      H3888   1.083       .  S
C3889      S3895   1.700       .  A
C3889      C3894   1.387       .  A
C3889      C3890   1.397       .  A
C3890      C3891   1.398       .  A
C3890      H3901   1.083       .  S
C3891      C3900   1.365       .  A
C3891      C3892   1.386       .  A
C3892      S3898   1.718       .  A
C3892      C3893   1.408       .  A
C3893      C3894   1.409       .  A
C3893      H3902   1.083       .  S
C3894      C3897   1.378       .  A
S3895      C3896   1.722       .  A
C3896      C3897   1.390       .  A
C3897      H3903   1.083       .  S
S3898      C3899   1.725       .  A
C3899      C3900   1.385       .  A
C3900      H3904   1.084       .  S
C3905      S3911   1.703       .  A
C3905      C3910   1.388       .  A
C3905      C3906   1.401       .  A
C3906      C3907   1.401       .  A
C3906      H3917   1.083       .  S
C3907      C3916   1.373       .  A
C3907      C3908   1.386       .  A
C3908      S3914   1.713       .  A
C3908      C3909   1.409       .  A
C3909      C3910   1.408       .  A
C3909      H3918   1.083       .  S
C3910      C3913   1.381       .  A
S3911      C3912   1.722       .  A
C3912      C3913   1.390       .  A
C3913      H3919   1.083       .  S
S3914      C3915   1.728       .  A
C3915      C3916   1.387       .  A
C3916      H3920   1.083       .  S
C3921      S3927   1.698       .  A
C3921      C3926   1.387       .  A
C3921      C3922   1.395       .  A
C3922      C3923   1.396       .  A
C3922      H3933   1.083       .  S
C3923      C3932   1.364       .  A
C3923      C3924   1.385       .  A
C3924      S3930   1.722       .  A
C3924      C3925   1.412       .  A
C3925      C3926   1.413       .  A
C3925      H3934   1.083       .  S
C3926      C3929   1.383       .  A
S3927      C3928   1.721       .  A
C3928      C3929   1.394       .  A
C3929      H3935   1.083       .  S
S3930      C3931   1.730       .  A
C3931      C3932   1.385       .  A
C3932      H3936   1.084       .  S
C3937      S3943   1.703       .  A
C3937      C3942   1.387       .  A
C3937      C3938   1.398       .  A
C3938      C3939   1.399       .  A
C3938      H3949   1.083       .  S
C3939      C3948   1.366       .  A
C3939      C3940   1.387       .  A
C3940      S3946   1.715       .  A
C3940      C3941   1.406       .  A
C3941      C3942   1.408       .  A
C3941      H3950   1.083       .  S
C3942      C3945   1.376       .  A
S3943      C3944   1.721       .  A
C3944      C3945   1.390       .  A
C3945      H3951   1.083       .  S
S3946      C3947   1.723       .  A
C3947      C3948   1.383       .  A
C3948      H3952   1.084       .  S
C3953      S3959   1.708       .  A
C3953      C3958   1.387       .  A
C3953      C3954   1.404       .  A
C3954      C3955   1.405       .  A
C3954      H3965   1.084       .  S
C3955      C3964   1.374       .  A
C3955      C3956   1.386       .  A
C3956      S3962   1.711       .  A
C3956      C3957   1.404       .  A
C3957      C3958   1.405       .  A
C3957      H3966   1.083       .  S
C3958      C3961   1.376       .  A
S3959      C3960   1.727       .  A
C3960      C3961   1.388       .  A
C3961      H3967   1.083       .  S
S3962      C3963   1.723       .  A
C3963      C3964   1.390       .  A
C3964      H3968   1.084       .  S
C3969      S3975   1.708       .  A
C3969      C3974   1.387       .  A
C3969      C3970   1.399       .  A
C3970      C3971   1.401       .  A
C3970      H3981   1.083       .  S
C3971      C3980   1.366       .  A
C3971      C3972   1.387       .  A
C3972      S3978   1.709       .  A
C3972      C3973   1.400       .  A
C3973      C3974   1.402       .  A
C3973      H3982   1.083       .  S
C3974      C3977   1.365       .  A
S3975      C3976   1.718       .  A
C3976      C3977   1.384       .  A
C3977      H3983   1.084       .  S
S3978      C3979   1.720       .  A
C3979      C3980   1.383       .  A
C3980      H3984   1.084       .  S
C3985      S3991   1.723       .  A
C3985      C3990   1.385       .  A
C3985      C3986   1.415       .  A
C3986      C3987   1.415       .  A
C3986      H3997   1.083       .  S
C3987      C3996   1.388       .  A
C3987      C3988   1.387       .  A
C3988      S3994   1.696       .  A
C3988      C3989   1.396       .  A
C3989      C3990   1.396       .  A
C3989      H3998   1.083       .  S
C3990      C3993   1.366       .  A
S3991      C3992   1.731       .  A
C3992      C3993   1.385       .  A
C3993      H3999   1.084       .  S
S3994      C3995   1.723       .  A
C3995      C3996   1.396       .  A
C3996      H4000   1.082       .  S
C4001      S4007   1.718       .  A
C4001      C4006   1.387       .  A
C4001      C4002   1.409       .  A
C4002      C4003   1.409       .  A
C4002      H4013   1.083       .  S
C4003      C4012   1.379       .  A
C4003      C4004   1.388       .  A
C4004      S4010   1.699       .  A
C4004      C4005   1.396       .  A
C4005      C4006   1.397       .  A
C4005      H4014   1.083       .  S
C4006      C4009   1.365       .  A
S4007      C4008   1.725       .  A
C4008      C4009   1.383       .  A
C4009      H4015   1.084       .  S
S4010      C4011   1.721       .  A
C4011      C4012   1.390       .  A
C4012      H4016   1.083       .  S
C4017      S4023   1.706       .  A
C4017      C4022   1.387       .  A
C4017      C4018   1.403       .  A
C4018      C4019   1.402       .  A
C4018      H4029   1.083       .  S
C4019      C4028   1.373       .  A
C4019      C4020   1.387       .  A
C4020      S4026   1.709       .  A
C4020      C4021   1.405       .  A
C4021      C4022   1.404       .  A
C4021      H4030   1.083       .  S
C4022      C4025   1.376       .  A
S4023      C4024   1.725       .  A
C4024      C4025   1.388       .  A
C4025      H4031   1.083       .  S
S4026      C4027   1.725       .  A
C4027      C4028   1.387       .  A
C4028      H4032   1.083       .  S
C4033      S4039   1.699       .  A
C4033      C4038   1.387       .  A
C4033      C4034   1.396       .  A
C4034      C4035   1.397       .  A
C4034      H4045   1.083       .  S
C4035      C4044   1.366       .  A
C4035      C4036   1.386       .  A
C4036      S4042   1.717       .  A
C4036      C4037   1.408       .  A
C4037      C4038   1.409       .  A
C4037      H4046   1.083       .  S
C4038      C4041   1.378       .  A
S4039      C4040   1.721       .  A
C4040      C4041   1.390       .  A
C4041      H4047   1.083       .  S
S4042      C4043   1.725       .  A
C4043      C4044   1.382       .  A
C4044      H4048   1.084       .  S
C4049      S4055   1.722       .  A
C4049      C4054   1.385       .  A
C4049      C4050   1.412       .  A
C4050      C4051   1.413       .  A
C4050      H4061   1.083       .  S
C4051      C4060   1.382       .  A
C4051      C4052   1.387       .  A
C4052      S4058   1.696       .  A
C4052      C4053   1.393       .  A
C4053      C4054   1.394       .  A
C4053      H4062   1.084       .  S
C4054      C4057   1.360       .  A
S4055      C4056   1.728       .  A
C4056      C4057   1.384       .  A
C4057      H4063   1.084       .  S
S4058      C4059   1.720       .  A
C4059      C4060   1.393       .  A
C4060      H4064   1.083       .  S
C4065      S4071   1.702       .  A
C4065      C4070   1.389       .  A
C4065      C4066   1.397       .  A
C4066      C4067   1.399       .  A
C4066      H4077   1.084       .  S
C4067      C4076   1.365       .  A
C4067      C4068   1.387       .  A
C4068      S4074   1.710       .  A
C4068      C4069   1.403       .  A
C4069      C4070   1.404       .  A
C4069      H4078   1.083       .  S
C4070      C4073   1.373       .  A
S4071      C4072   1.719       .  A
C4072      C4073   1.384       .  A
C4073      H4079   1.083       .  S
S4074      C4075   1.722       .  A
C4075      C4076   1.384       .  A
C4076      H4080   1.084       .  S
C4081      S4087   1.717       .  A
C4081      C4086   1.386       .  A
C4081      C4082   1.409       .  A
C4082      C4083   1.409       .  A
C4082      H4093   1.083       .  S
C4083      C4092   1.381       .  A
C4083      C4084   1.387       .  A
C4084      S4090   1.703       .  A
C4084      C4085   1.401       .  A
C4085      C4086   1.401       .  A
C4085      H4094   1.084       .  S
C4086      C4089   1.371       .  A
S4087      C4088   1.725       .  A
C4088      C4089   1.385       .  A
C4089      H4095   1.084       .  S
S4090      C4091   1.725       .  A
C4091      C4092   1.392       .  A
C4092      H4096   1.083       .  S
C4097      S4103   1.714       .  A
C4097      C4102   1.387       .  A
C4097      C4098   1.404       .  A
C4098      C4099   1.405       .  A
C4098      H4109   1.083       .  S
C4099      C4108   1.373       .  A
C4099      C4100   1.388       .  A
C4100      S4106   1.701       .  A
C4100      C4101   1.397       .  A
C4101      C4102   1.398       .  A
C4101      H4110   1.083       .  S
C4102      C4105   1.364       .  A
S4103      C4104   1.721       .  A
C4104      C4105   1.381       .  A
C4105      H4111   1.083       .  S
S4106      C4107   1.722       .  A
C4107      C4108   1.387       .  A
C4108      H4112   1.083       .  S
C4113      S4119   1.713       .  A
C4113      C4118   1.386   1_554  A
C4113      C4114   1.404       .  A
C4114      C4115   1.406       .  A
C4114      H4125   1.083       .  S
C4115      C4124   1.374       .  A
C4115      C4116   1.386       .  A
C4116      S4122   1.711   1_554  A
C4116      C4117   1.404   1_554  A
C4117      C4118   1.405       .  A
C4117      H4126   1.083       .  S
C4118      C4121   1.373       .  A
S4119      C4120   1.722   1_554  A
C4120      C4121   1.388       .  A
C4121      H4127   1.083       .  S
S4122      C4123   1.723   1_556  A
C4123      C4124   1.389       .  A
C4124      H4128   1.083       .  S
C4129      S4135   1.717       .  A
C4129      C4134   1.386       .  A
C4129      C4130   1.408       .  A
C4130      C4131   1.409       .  A
C4130      H4141   1.083       .  S
C4131      C4140   1.378       .  A
C4131      C4132   1.387       .  A
C4132      S4138   1.699       .  A
C4132      C4133   1.396       .  A
C4133      C4134   1.397       .  A
C4133      H4142   1.084       .  S
C4134      C4137   1.363       .  A
S4135      C4136   1.727       .  A
C4136      C4137   1.384       .  A
C4137      H4143   1.084       .  S
S4138      C4139   1.721       .  A
C4139      C4140   1.391       .  A
C4140      H4144   1.083       .  S
C4145      S4151   1.698       .  A
C4145      C4150   1.388       .  A
C4145      C4146   1.395       .  A
C4146      C4147   1.396       .  A
C4146      H4157   1.083       .  S
C4147      C4156   1.362       .  A
C4147      C4148   1.387       .  A
C4148      S4154   1.717       .  A
C4148      C4149   1.407       .  A
C4149      C4150   1.408       .  A
C4149      H4158   1.083       .  S
C4150      C4153   1.376       .  A
S4151      C4152   1.720       .  A
C4152      C4153   1.389       .  A
C4153      H4159   1.083       .  S
S4154      C4155   1.723       .  A
C4155      C4156   1.381       .  A
C4156      H4160   1.083       .  S
C4161      S4167   1.698       .  A
C4161      C4166   1.388       .  A
C4161      C4162   1.393       .  A
C4162      C4163   1.395       .  A
C4162      H4173   1.084       .  S
C4163      C4172   1.360       .  A
C4163      C4164   1.385       .  A
C4164      S4170   1.722       .  A
C4164      C4165   1.410       .  A
C4165      C4166   1.411       .  A
C4165      H4174   1.083       .  S
C4166      C4169   1.379       .  A
S4167      C4168   1.720       .  A
C4168      C4169   1.391       .  A
C4169      H4175   1.083       .  S
S4170      C4171   1.728       .  A
C4171      C4172   1.385       .  A
C4172      H4176   1.084       .  S
C4177      S4183   1.718       .  A
C4177      C4182   1.386       .  A
C4177      C4178   1.410       .  A
C4178      C4179   1.411       .  A
C4178      H4189   1.083       .  S
C4179      C4188   1.381       .  A
C4179      C4180   1.388       .  A
C4180      S4186   1.696       .  A
C4180      C4181   1.394       .  A
C4181      C4182   1.395       .  A
C4181      H4190   1.084       .  S
C4182      C4185   1.363       .  A
S4183      C4184   1.728       .  A
C4184      C4185   1.383       .  A
C4185      H4191   1.084       .  S
S4186      C4187   1.716       .  A
C4187      C4188   1.390       .  A
C4188      H4192   1.083       .  S
C4193      S4199   1.716       .  A
C4193      C4198   1.387       .  A
C4193      C4194   1.407       .  A
C4194      C4195   1.408       .  A
C4194      H4205   1.083       .  S
C4195      C4204   1.376       .  A
C4195      C4196   1.388       .  A
C4196      S4202   1.701       .  A
C4196      C4197   1.395       .  A
C4197      C4198   1.397       .  A
C4197      H4206   1.083       .  S
C4198      C4201   1.364       .  A
S4199      C4200   1.724       .  A
C4200      C4201   1.383       .  A
C4201      H4207   1.084       .  S
S4202      C4203   1.719       .  A
C4203      C4204   1.390       .  A
C4204      H4208   1.083       .  S
C4209      S4215   1.712       .  A
C4209      C4214   1.386       .  A
C4209      C4210   1.407       .  A
C4210      C4211   1.407       .  A
C4210      H4221   1.083       .  S
C4211      C4220   1.379       .  A
C4211      C4212   1.387       .  A
C4212      S4218   1.705   1_556  A
C4212      C4213   1.403   1_556  A
C4213      C4214   1.402   1_554  A
C4213      H4222   1.084       .  S
C4214      C4217   1.373       .  A
S4215      C4216   1.726       .  A
C4216      C4217   1.388       .  A
C4217      H4223   1.084       .  S
S4218      C4219   1.726   1_554  A
C4219      C4220   1.390       .  A
C4220      H4224   1.083       .  S
C4225      S4231   1.703       .  A
C4225      C4230   1.388       .  A
C4225      C4226   1.398       .  A
C4226      C4227   1.399       .  A
C4226      H4237   1.083       .  S
C4227      C4236   1.366       .  A
C4227      C4228   1.388       .  A
C4228      S4234   1.708       .  A
C4228      C4229   1.401       .  A
C4229      C4230   1.403       .  A
C4229      H4238   1.083       .  S
C4230      C4233   1.370       .  A
S4231      C4232   1.721       .  A
C4232      C4233   1.386       .  A
C4233      H4239   1.083   1_554  S
S4234      C4235   1.719       .  A
C4235      C4236   1.380       .  A
C4236      H4240   1.084       .  S
C4241      S4247   1.706       .  A
C4241      C4246   1.387       .  A
C4241      C4242   1.400       .  A
C4242      C4243   1.401       .  A
C4242      H4253   1.083       .  S
C4243      C4252   1.369       .  A
C4243      C4244   1.386       .  A
C4244      S4250   1.714       .  A
C4244      C4245   1.406       .  A
C4245      C4246   1.407       .  A
C4245      H4254   1.083       .  S
C4246      C4249   1.375       .  A
S4247      C4248   1.722       .  A
C4248      C4249   1.390       .  A
C4249      H4255   1.083       .  S
S4250      C4251   1.727       .  A
C4251      C4252   1.387       .  A
C4252      H4256   1.083       .  S
C4257      S4263   1.711       .  A
C4257      C4262   1.387       .  A
C4257      C4258   1.403       .  A
C4258      C4259   1.405       .  A
C4258      H4269   1.083       .  S
C4259      C4268   1.371       .  A
C4259      C4260   1.387       .  A
C4260      S4266   1.708       .  A
C4260      C4261   1.400       .  A
C4261      C4262   1.402       .  A
C4261      H4270   1.083       .  S
C4262      C4265   1.368       .  A
S4263      C4264   1.723       .  A
C4264      C4265   1.385       .  A
C4265      H4271   1.084       .  S
S4266      C4267   1.720       .  A
C4267      C4268   1.388       .  A
C4268      H4272   1.084       .  S
C4273      S4279   1.717       .  A
C4273      C4278   1.386       .  A
C4273      C4274   1.411       .  A
C4274      C4275   1.410       .  A
C4274      H4285   1.083       .  S
C4275      C4284   1.383       .  A
C4275      C4276   1.387       .  A
C4276      S4282   1.702       .  A
C4276      C4277   1.400       .  A
C4277      C4278   1.400       .  A
C4277      H4286   1.083       .  S
C4278      C4281   1.371       .  A
S4279      C4280   1.728       .  A
C4280      C4281   1.386       .  A
C4281      H4287   1.083       .  S
S4282      C4283   1.723       .  A
C4283      C4284   1.392       .  A
C4284      H4288   1.083       .  S
C4289      S4295   1.699       .  A
C4289      C4294   1.388       .  A
C4289      C4290   1.399       .  A
C4290      C4291   1.399       .  A
C4290      H4301   1.084       .  S
C4291      C4300   1.370       .  A
C4291      C4292   1.387       .  A
C4292      S4298   1.708       .  A
C4292      C4293   1.405       .  A
C4293      C4294   1.404       .  A
C4293      H4302   1.083       .  S
C4294      C4297   1.376       .  A
S4295      C4296   1.719       .  A
C4296      C4297   1.385       .  A
C4297      H4303   1.083       .  S
S4298      C4299   1.725       .  A
C4299      C4300   1.385       .  A
C4300      H4304   1.083       .  S
C4305      S4311   1.709       .  A
C4305      C4310   1.387       .  A
C4305      C4306   1.401       .  A
C4306      C4307   1.403       .  A
C4306      H4317   1.083       .  S
C4307      C4316   1.370       .  A
C4307      C4308   1.386       .  A
C4308      S4314   1.715       .  A
C4308      C4309   1.406       .  A
C4309      C4310   1.408       .  A
C4309      H4318   1.083       .  S
C4310      C4313   1.376       .  A
S4311      C4312   1.722       .  A
C4312      C4313   1.390       .  A
C4313      H4319   1.083       .  S
S4314      C4315   1.725       .  A
C4315      C4316   1.388       .  A
C4316      H4320   1.084       .  S
C4321      S4327   1.702       .  A
C4321      C4326   1.388       .  A
C4321      C4322   1.399       .  A
C4322      C4323   1.399       .  A
C4322      H4333   1.084       .  S
C4323      C4332   1.368       .  A
C4323      C4324   1.386       .  A
C4324      S4330   1.716       .  A
C4324      C4325   1.408       .  A
C4325      C4326   1.409       .  A
C4325      H4334   1.083       .  S
C4326      C4329   1.380       .  A
S4327      C4328   1.720       .  A
C4328      C4329   1.389       .  A
C4329      H4335   1.083       .  S
S4330      C4331   1.727       .  A
C4331      C4332   1.386       .  A
C4332      H4336   1.083       .  S
C4337      S4343   1.703       .  A
C4337      C4342   1.388       .  A
C4337      C4338   1.400       .  A
C4338      C4339   1.401       .  A
C4338      H4349   1.084       .  S
C4339      C4348   1.369       .  A
C4339      C4340   1.386       .  A
C4340      S4346   1.714       .  A
C4340      C4341   1.406       .  A
C4341      C4342   1.407       .  A
C4341      H4350   1.083       .  S
C4342      C4345   1.377       .  A
S4343      C4344   1.721       .  A
C4344      C4345   1.387       .  A
C4345      H4351   1.083       .  S
S4346      C4347   1.725       .  A
C4347      C4348   1.388       .  A
C4348      H4352   1.084       .  S
C4353      S4359   1.705       .  A
C4353      C4358   1.387       .  A
C4353      C4354   1.402       .  A
C4354      C4355   1.403       .  A
C4354      H4365   1.083       .  S
C4355      C4364   1.374       .  A
C4355      C4356   1.386       .  A
C4356      S4362   1.709       .  A
C4356      C4357   1.406       .  A
C4357      C4358   1.406       .  A
C4357      H4366   1.083       .  S
C4358      C4361   1.377       .  A
S4359      C4360   1.721       .  A
C4360      C4361   1.388       .  A
C4361      H4367   1.083       .  S
S4362      C4363   1.724       .  A
C4363      C4364   1.387       .  A
C4364      H4368   1.083       .  S
C4369      S4375   1.719       .  A
C4369      C4374   1.386       .  A
C4369      C4370   1.410       .  A
C4370      C4371   1.411       .  A
C4370      H4381   1.083       .  S
C4371      C4380   1.379       .  A
C4371      C4372   1.387       .  A
C4372      S4378   1.700       .  A
C4372      C4373   1.395       .  A
C4373      C4374   1.397       .  A
C4373      H4382   1.084       .  S
C4374      C4377   1.364       .  A
S4375      C4376   1.728       .  A
C4376      C4377   1.384       .  A
C4377      H4383   1.084       .  S
S4378      C4379   1.720       .  A
C4379      C4380   1.392       .  A
C4380      H4384   1.083       .  S
C4385      S4391   1.702       .  A
C4385      C4390   1.387       .  A
C4385      C4386   1.398       .  A
C4386      C4387   1.399       .  A
C4386      H4397   1.084       .  S
C4387      C4396   1.368       .  A
C4387      C4388   1.386       .  A
C4388      S4394   1.720       .  A
C4388      C4389   1.410       .  A
C4389      C4390   1.411       .  A
C4389      H4398   1.083       .  S
C4390      C4393   1.381       .  A
S4391      C4392   1.722       .  A
C4392      C4393   1.394       .  A
C4393      H4399   1.083       .  S
S4394      C4395   1.726       .  A
C4395      C4396   1.385       .  A
C4396      H4400   1.084       .  S
C4401      S4407   1.703       .  A
C4401      C4406   1.387       .  A
C4401      C4402   1.402       .  A
C4402      C4403   1.402       .  A
C4402      H4413   1.083       .  S
C4403      C4412   1.373       .  A
C4403      C4404   1.387       .  A
C4404      S4410   1.713       .  A
C4404      C4405   1.407       .  A
C4405      C4406   1.407       .  A
C4405      H4414   1.083       .  S
C4406      C4409   1.379       .  A
S4407      C4408   1.725       .  A
C4408      C4409   1.390       .  A
C4409      H4415   1.083       .  S
S4410      C4411   1.723       .  A
C4411      C4412   1.385       .  A
C4412      H4416   1.083       .  S
C4417      S4423   1.701       .  A
C4417      C4422   1.387       .  A
C4417      C4418   1.398       .  A
C4418      C4419   1.399       .  A
C4418      H4429   1.084       .  S
C4419      C4428   1.365       .  A
C4419      C4420   1.386       .  A
C4420      S4426   1.719       .  A
C4420      C4421   1.408       .  A
C4421      C4422   1.409       .  A
C4421      H4430   1.083       .  S
C4422      C4425   1.379       .  A
S4423      C4424   1.724       .  A
C4424      C4425   1.390       .  A
C4425      H4431   1.083       .  S
S4426      C4427   1.725       .  A
C4427      C4428   1.385       .  A
C4428      H4432   1.084       .  S
C4433      S4439   1.703       .  A
C4433      C4438   1.388       .  A
C4433      C4434   1.399       .  A
C4434      C4435   1.399       .  A
C4434      H4445   1.083       .  S
C4435      C4444   1.370       .  A
C4435      C4436   1.386       .  A
C4436      S4442   1.715       .  A
C4436      C4437   1.409       .  A
C4437      C4438   1.409       .  A
C4437      H4446   1.083       .  S
C4438      C4441   1.380       .  A
S4439      C4440   1.719       .  A
C4440      C4441   1.390       .  A
C4441      H4447   1.083       .  S
S4442      C4443   1.728       .  A
C4443      C4444   1.386       .  A
C4444      H4448   1.083       .  S
C4449      S4455   1.705       .  A
C4449      C4454   1.388       .  A
C4449      C4450   1.401       .  A
C4450      C4451   1.402       .  A
C4450      H4461   1.083       .  S
C4451      C4460   1.371       .  A
C4451      C4452   1.387       .  A
C4452      S4458   1.707       .  A
C4452      C4453   1.402       .  A
C4453      C4454   1.402       .  A
C4453      H4462   1.083       .  S
C4454      C4457   1.372       .  A
S4455      C4456   1.722       .  A
C4456      C4457   1.384       .  A
C4457      H4463   1.083       .  S
S4458      C4459   1.723       .  A
C4459      C4460   1.386       .  A
C4460      H4464   1.083       .  S
C4465      S4471   1.722       .  A
C4465      C4470   1.385       .  A
C4465      C4466   1.412       .  A
C4466      C4467   1.413       .  A
C4466      H4477   1.083       .  S
C4467      C4476   1.382       .  A
C4467      C4468   1.387       .  A
C4468      S4474   1.699       .  A
C4468      C4469   1.395       .  A
C4469      C4470   1.396       .  A
C4469      H4478   1.083       .  S
C4470      C4473   1.364       .  A
S4471      C4472   1.730       .  A
C4472      C4473   1.385       .  A
C4473      H4479   1.084       .  S
S4474      C4475   1.721       .  A
C4475      C4476   1.394       .  A
C4476      H4480   1.083       .  S
C4481      S4487   1.711       .  A
C4481      C4486   1.387       .  A
C4481      C4482   1.405       .  A
C4482      C4483   1.405       .  A
C4482      H4493   1.083       .  S
C4483      C4492   1.374       .  A
C4483      C4484   1.387       .  A
C4484      S4490   1.707       .  A
C4484      C4485   1.402       .  A
C4485      C4486   1.402       .  A
C4485      H4494   1.083       .  S
C4486      C4489   1.372       .  A
S4487      C4488   1.725       .  A
C4488      C4489   1.387       .  A
C4489      H4495   1.083       .  S
S4490      C4491   1.723       .  A
C4491      C4492   1.390       .  A
C4492      H4496   1.083       .  S
C4497      S4503   1.717       .  A
C4497      C4502   1.386       .  A
C4497      C4498   1.409       .  A
C4498      C4499   1.410       .  A
C4498      H4509   1.083       .  S
C4499      C4508   1.380       .  A
C4499      C4500   1.388       .  A
C4500      S4506   1.696       .  A
C4500      C4501   1.395       .  A
C4501      C4502   1.395       .  A
C4501      H4510   1.083       .  S
C4502      C4505   1.365       .  A
S4503      C4504   1.726       .  A
C4504      C4505   1.382       .  A
C4505      H4511   1.084       .  S
S4506      C4507   1.719       .  A
C4507      C4508   1.390       .  A
C4508      H4512   1.083       .  S
C4513      S4519   1.691       .  A
C4513      C4518   1.388       .  A
C4513      C4514   1.392       .  A
C4514      C4515   1.392       .  A
C4514      H4525   1.084       .  S
C4515      C4524   1.363       .  A
C4515      C4516   1.386       .  A
C4516      S4522   1.717       .  A
C4516      C4517   1.411       .  A
C4517      C4518   1.411       .  A
C4517      H4526   1.083       .  S
C4518      C4521   1.383       .  A
S4519      C4520   1.719       .  A
C4520      C4521   1.391       .  A
C4521      H4527   1.083       .  S
S4522      C4523   1.729       .  A
C4523      C4524   1.380       .  A
C4524      H4528   1.084       .  S
C4529      S4535   1.720       .  A
C4529      C4534   1.385       .  A
C4529      C4530   1.413       .  A
C4530      C4531   1.412       .  A
C4530      H4541   1.083       .  S
C4531      C4540   1.385       .  A
C4531      C4532   1.387       .  A
C4532      S4538   1.697       .  A
C4532      C4533   1.397       .  A
C4533      C4534   1.397       .  A
C4533      H4542   1.084       .  S
C4534      C4537   1.367       .  A
S4535      C4536   1.730       .  A
C4536      C4537   1.386       .  A
C4537      H4543   1.084       .  S
S4538      C4539   1.723       .  A
C4539      C4540   1.393       .  A
C4540      H4544   1.083       .  S
C4545      S4551   1.719       .  A
C4545      C4550   1.386       .  A
C4545      C4546   1.411       .  A
C4546      C4547   1.411   1_565  A
C4546      H4557   1.083   1_565  S
C4547      C4556   1.382       .  A
C4547      C4548   1.388       .  A
C4548      S4554   1.692       .  A
C4548      C4549   1.393   1_545  A
C4549      C4550   1.393       .  A
C4549      H4558   1.084       .  S
C4550      C4553   1.361       .  A
S4551      C4552   1.727       .  A
C4552      C4553   1.382       .  A
C4553      H4559   1.084       .  S
S4554      C4555   1.720       .  A
C4555      C4556   1.391       .  A
C4556      H4560   1.082       .  S
C4561      S4567   1.702       .  A
C4561      C4566   1.386   1_556  A
C4561      C4562   1.402   1_545  A
C4562      C4563   1.402   1_556  A
C4562      H4573   1.083       .  S
C4563      C4572   1.375       .  A
C4563      C4564   1.387       .  A
C4564      S4570   1.706       .  A
C4564      C4565   1.405   1_565  A
C4565      C4566   1.405       .  A
C4565      H4574   1.083       .  S
C4566      C4569   1.377       .  A
S4567      C4568   1.720       .  A
C4568      C4569   1.388   1_556  A
C4569      H4575   1.083       .  S
S4570      C4571   1.724       .  A
C4571      C4572   1.386       .  A
C4572      H4576   1.083       .  S
C4577      S4583   1.698       .  A
C4577      C4582   1.387       .  A
C4577      C4578   1.396       .  A
C4578      C4579   1.397       .  A
C4578      H4589   1.084       .  S
C4579      C4588   1.366       .  A
C4579      C4580   1.385       .  A
C4580      S4586   1.722       .  A
C4580      C4581   1.413       .  A
C4581      C4582   1.413       .  A
C4581      H4590   1.083       .  S
C4582      C4585   1.385       .  A
S4583      C4584   1.722       .  A
C4584      C4585   1.395       .  A
C4585      H4591   1.083       .  S
S4586      C4587   1.729       .  A
C4587      C4588   1.385       .  A
C4588      H4592   1.084       .  S
C4593      S4599   1.714       .  A
C4593      C4598   1.387       .  A
C4593      C4594   1.406       .  A
C4594      C4595   1.407   1_565  A
C4594      H4605   1.083       .  S
C4595      C4604   1.375       .  A
C4595      C4596   1.388       .  A
C4596      S4602   1.701       .  A
C4596      C4597   1.396       .  A
C4597      C4598   1.397   1_545  A
C4597      H4606   1.083       .  S
C4598      C4601   1.363       .  A
S4599      C4600   1.723       .  A
C4600      C4601   1.381       .  A
C4601      H4607   1.084       .  S
S4602      C4603   1.718       .  A
C4603      C4604   1.388       .  A
C4604      H4608   1.083       .  S
C4609      S4615   1.696       .  A
C4609      C4614   1.387       .  A
C4609      C4610   1.394       .  A
C4610      C4611   1.395       .  A
C4610      H4621   1.084       .  S
C4611      C4620   1.362       .  A
C4611      C4612   1.385       .  A
C4612      S4618   1.720       .  A
C4612      C4613   1.410       .  A
C4613      C4614   1.411       .  A
C4613      H4622   1.083       .  S
C4614      C4617   1.380       .  A
S4615      C4616   1.720       .  A
C4616      C4617   1.392       .  A
C4617      H4623   1.083       .  S
S4618      C4619   1.728       .  A
C4619      C4620   1.385       .  A
C4620      H4624   1.084       .  S
C4625      S4631   1.707       .  A
C4625      C4630   1.387       .  A
C4625      C4626   1.403       .  A
C4626      C4627   1.404       .  A
C4626      H4637   1.083       .  S
C4627      C4636   1.374       .  A
C4627      C4628   1.387       .  A
C4628      S4634   1.709       .  A
C4628      C4629   1.404       .  A
C4629      C4630   1.404       .  A
C4629      H4638   1.083       .  S
C4630      C4633   1.375       .  A
S4631      C4632   1.721       .  A
C4632      C4633   1.385       .  A
C4633      H4639   1.083       .  S
S4634      C4635   1.722       .  A
C4635      C4636   1.387       .  A
C4636      H4640   1.083       .  S
C4641      S4647   1.708       .  A
C4641      C4646   1.387       .  A
C4641      C4642   1.401       .  A
C4642      C4643   1.403   1_565  A
C4642      H4653   1.083       .  S
C4643      C4652   1.370       .  A
C4643      C4644   1.386       .  A
C4644      S4650   1.716       .  A
C4644      C4645   1.407       .  A
C4645      C4646   1.409   1_545  A
C4645      H4654   1.083       .  S
C4646      C4649   1.377       .  A
S4647      C4648   1.719       .  A
C4648      C4649   1.389       .  A
C4649      H4655   1.083       .  S
S4650      C4651   1.724       .  A
C4651      C4652   1.388       .  A
C4652      H4656   1.083       .  S
C4657      S4663   1.703       .  A
C4657      C4662   1.387       .  A
C4657      C4658   1.401       .  A
C4658      C4659   1.401       .  A
C4658      H4669   1.083       .  S
C4659      C4668   1.373       .  A
C4659      C4660   1.386       .  A
C4660      S4666   1.719       .  A
C4660      C4661   1.413       .  A
C4661      C4662   1.413       .  A
C4661      H4670   1.083       .  S
C4662      C4665   1.386       .  A
S4663      C4664   1.721       .  A
C4664      C4665   1.394       .  A
C4665      H4671   1.083       .  S
S4666      C4667   1.731       .  A
C4667      C4668   1.388       .  A
C4668      H4672   1.083       .  S
C4673      S4679   1.704       .  A
C4673      C4678   1.387       .  A
C4673      C4674   1.399       .  A
C4674      C4675   1.400       .  A
C4674      H4685   1.083       .  S
C4675      C4684   1.369       .  A
C4675      C4676   1.386       .  A
C4676      S4682   1.719       .  A
C4676      C4677   1.411       .  A
C4677      C4678   1.411       .  A
C4677      H4686   1.083       .  S
C4678      C4681   1.381       .  A
S4679      C4680   1.722       .  A
C4680      C4681   1.394       .  A
C4681      H4687   1.083       .  S
S4682      C4683   1.729       .  A
C4683      C4684   1.387       .  A
C4684      H4688   1.083       .  S
C4689      S4695   1.705       .  A
C4689      C4694   1.387       .  A
C4689      C4690   1.402       .  A
C4690      C4691   1.402       .  A
C4690      H4701   1.083       .  S
C4691      C4700   1.373       .  A
C4691      C4692   1.386       .  A
C4692      S4698   1.716       .  A
C4692      C4693   1.410       .  A
C4693      C4694   1.410       .  A
C4693      H4702   1.083       .  S
C4694      C4697   1.383       .  A
S4695      C4696   1.722       .  A
C4696      C4697   1.391       .  A
C4697      H4703   1.083       .  S
S4698      C4699   1.728       .  A
C4699      C4700   1.389       .  A
C4700      H4704   1.083       .  S
C4705      S4711   1.717       .  A
C4705      C4710   1.386       .  A
C4705      C4706   1.410       .  A
C4706      C4707   1.410       .  A
C4706      H4717   1.083       .  S
C4707      C4716   1.382       .  A
C4707      C4708   1.386       .  A
C4708      S4714   1.713       .  A
C4708      C4709   1.406       .  A
C4709      C4710   1.406       .  A
C4709      H4718   1.083       .  S
C4710      C4713   1.378       .  A
S4711      C4712   1.728       .  A
C4712      C4713   1.390       .  A
C4713      H4719   1.083       .  S
S4714      C4715   1.723       .  A
C4715      C4716   1.393       .  A
C4716      H4720   1.083       .  S
C4721      S4727   1.717       .  A
C4721      C4726   1.386       .  A
C4721      C4722   1.410       .  A
C4722      C4723   1.410       .  A
C4722      H4733   1.083       .  S
C4723      C4732   1.382       .  A
C4723      C4724   1.387       .  A
C4724      S4730   1.699       .  A
C4724      C4725   1.398       .  A
C4725      C4726   1.398       .  A
C4725      H4734   1.083       .  S
C4726      C4729   1.368       .  A
S4727      C4728   1.724       .  A
C4728      C4729   1.384       .  A
C4729      H4735   1.084       .  S
S4730      C4731   1.723       .  A
C4731      C4732   1.392       .  A
C4732      H4736   1.083       .  S
C4737      S4743   1.698       .  A
C4737      C4742   1.387       .  A
C4737      C4738   1.398       .  A
C4738      C4739   1.398       .  A
C4738      H4749   1.083       .  S
C4739      C4748   1.369       .  A
C4739      C4740   1.387       .  A
C4740      S4746   1.715       .  A
C4740      C4741   1.409       .  A
C4741      C4742   1.409       .  A
C4741      H4750   1.083       .  S
C4742      C4745   1.381       .  A
S4743      C4744   1.724       .  A
C4744      C4745   1.391       .  A
C4745      H4751   1.083       .  S
S4746      C4747   1.726       .  A
C4747      C4748   1.383       .  A
C4748      H4752   1.083       .  S
C4753      S4759   1.721       .  A
C4753      C4758   1.386       .  A
C4753      C4754   1.412       .  A
C4754      C4755   1.412       .  A
C4754      H4765   1.083       .  S
C4755      C4764   1.383       .  A
C4755      C4756   1.387       .  A
C4756      S4762   1.701       .  A
C4756      C4757   1.398       .  A
C4757      C4758   1.399       .  A
C4757      H4766   1.084       .  S
C4758      C4761   1.368       .  A
S4759      C4760   1.728       .  A
C4760      C4761   1.385       .  A
C4761      H4767   1.084       .  S
S4762      C4763   1.723       .  A
C4763      C4764   1.394       .  A
C4764      H4768   1.083       .  S
C4769      S4775   1.714       .  A
C4769      C4774   1.387       .  A
C4769      C4770   1.404       .  A
C4770      C4771   1.406       .  A
C4770      H4781   1.083       .  S
C4771      C4780   1.372       .  A
C4771      C4772   1.387       .  A
C4772      S4778   1.702       .  A
C4772      C4773   1.396       .  A
C4773      C4774   1.398       .  A
C4773      H4782   1.083       .  S
C4774      C4777   1.362       .  A
S4775      C4776   1.722       .  A
C4776      C4777   1.382       .  A
C4777      H4783   1.084       .  S
S4778      C4779   1.720       .  A
C4779      C4780   1.388       .  A
C4780      H4784   1.083   1_556  S
C4785      S4791   1.710       .  A
C4785      C4790   1.387       .  A
C4785      C4786   1.403       .  A
C4786      C4787   1.405       .  A
C4786      H4797   1.083       .  S
C4787      C4796   1.371       .  A
C4787      C4788   1.386       .  A
C4788      S4794   1.713       .  A
C4788      C4789   1.403       .  A
C4789      C4790   1.405       .  A
C4789      H4798   1.083       .  S
C4790      C4793   1.373       .  A
S4791      C4792   1.723       .  A
C4792      C4793   1.387       .  A
C4793      H4799   1.084       .  S
S4794      C4795   1.720       .  A
C4795      C4796   1.388       .  A
C4796      H4800   1.084       .  S
C4801      S4807   1.716       .  A
C4801      C4806   1.386       .  A
C4801      C4802   1.409       .  A
C4802      C4803   1.408       .  A
C4802      H4813   1.083       .  S
C4803      C4812   1.380       .  A
C4803      C4804   1.388       .  A
C4804      S4810   1.698       .  A
C4804      C4805   1.397       .  A
C4805      C4806   1.397       .  A
C4805      H4814   1.084       .  S
C4806      C4809   1.367       .  A
S4807      C4808   1.726       .  A
C4808      C4809   1.384       .  A
C4809      H4815   1.084       .  S
S4810      C4811   1.721       .  A
C4811      C4812   1.389       .  A
C4812      H4816   1.083       .  S
C4817      S4823   1.707       .  A
C4817      C4822   1.387       .  A
C4817      C4818   1.399       .  A
C4818      C4819   1.401       .  A
C4818      H4829   1.083       .  S
C4819      C4828   1.365       .  A
C4819      C4820   1.387       .  A
C4820      S4826   1.710       .  A
C4820      C4821   1.400       .  A
C4821      C4822   1.403       .  A
C4821      H4830   1.083       .  S
C4822      C4825   1.367       .  A
S4823      C4824   1.722       .  A
C4824      C4825   1.386       .  A
C4825      H4831   1.083       .  S
S4826      C4827   1.720       .  A
C4827      C4828   1.383       .  A
C4828      H4832   1.084       .  S
C4833      S4839   1.711       .  A
C4833      C4838   1.387       .  A
C4833      C4834   1.407       .  A
C4834      C4835   1.406       .  A
C4834      H4845   1.083       .  S
C4835      C4844   1.378       .  A
C4835      C4836   1.387       .  A
C4836      S4842   1.705       .  A
C4836      C4837   1.402       .  A
C4837      C4838   1.402       .  A
C4837      H4846   1.083       .  S
C4838      C4841   1.373       .  A
S4839      C4840   1.724       .  A
C4840      C4841   1.385       .  A
C4841      H4847   1.083       .  S
S4842      C4843   1.723       .  A
C4843      C4844   1.389       .  A
C4844      H4848   1.083       .  S
C4849      S4855   1.701       .  A
C4849      C4854   1.387       .  A
C4849      C4850   1.401       .  A
C4850      C4851   1.401       .  A
C4850      H4861   1.084       .  S
C4851      C4860   1.371   1_554  A
C4851      C4852   1.386       .  A
C4852      S4858   1.719   1_554  A
C4852      C4853   1.411       .  A
C4853      C4854   1.411       .  A
C4853      H4862   1.083       .  S
C4854      C4857   1.384       .  A
S4855      C4856   1.725       .  A
C4856      C4857   1.392       .  A
C4857      H4863   1.083       .  S
S4858      C4859   1.727       .  A
C4859      C4860   1.388       .  A
C4860      H4864   1.084       .  S
C4865      S4871   1.706       .  A
C4865      C4870   1.387       .  A
C4865      C4866   1.403       .  A
C4866      C4867   1.403       .  A
C4866      H4877   1.083       .  S
C4867      C4876   1.374       .  A
C4867      C4868   1.388       .  A
C4868      S4874   1.704       .  A
C4868      C4869   1.401       .  A
C4869      C4870   1.402       .  A
C4869      H4878   1.083       .  S
C4870      C4873   1.372       .  A
S4871      C4872   1.722       .  A
C4872      C4873   1.386       .  A
C4873      H4879   1.083       .  S
S4874      C4875   1.722       .  A
C4875      C4876   1.385       .  A
C4876      H4880   1.083       .  S
C4881      S4887   1.721       .  A
C4881      C4886   1.385       .  A
C4881      C4882   1.413       .  A
C4882      C4883   1.413       .  A
C4882      H4893   1.083       .  S
C4883      C4892   1.385       .  A
C4883      C4884   1.387       .  A
C4884      S4890   1.699       .  A
C4884      C4885   1.398       .  A
C4885      C4886   1.398       .  A
C4885      H4894   1.083       .  S
C4886      C4889   1.368       .  A
S4887      C4888   1.730       .  A
C4888      C4889   1.387       .  A
C4889      H4895   1.084       .  S
S4890      C4891   1.724       .  A
C4891      C4892   1.395       .  A
C4892      H4896   1.083       .  S
C4897      S4903   1.700       .  A
C4897      C4902   1.388       .  A
C4897      C4898   1.396       .  A
C4898      C4899   1.397       .  A
C4898      H4909   1.084       .  S
C4899      C4908   1.363       .  A
C4899      C4900   1.386       .  A
C4900      S4906   1.719       .  A
C4900      C4901   1.409       .  A
C4901      C4902   1.410       .  A
C4901      H4910   1.083       .  S
C4902      C4905   1.380       .  A
S4903      C4904   1.717       .  A
C4904      C4905   1.390       .  A
C4905      H4911   1.083       .  S
S4906      C4907   1.726       .  A
C4907      C4908   1.383       .  A
C4908      H4912   1.084       .  S
C4913      S4919   1.711       .  A
C4913      C4918   1.387       .  A
C4913      C4914   1.404   1_565  A
C4914      C4915   1.405       .  A
C4914      H4925   1.083       .  S
C4915      C4924   1.376       .  A
C4915      C4916   1.386       .  A
C4916      S4922   1.715       .  A
C4916      C4917   1.408       .  A
C4917      C4918   1.408   1_545  A
C4917      H4926   1.083       .  S
C4918      C4921   1.380       .  A
S4919      C4920   1.723       .  A
C4920      C4921   1.390       .  A
C4921      H4927   1.083       .  S
S4922      C4923   1.727       .  A
C4923      C4924   1.390       .  A
C4924      H4928   1.083       .  S
C4929      S4935   1.711       .  A
C4929      C4934   1.386       .  A
C4929      C4930   1.402       .  A
C4930      C4931   1.404       .  A
C4930      H4941   1.083       .  S
C4931      C4940   1.370       .  A
C4931      C4932   1.387       .  A
C4932      S4938   1.709       .  A
C4932      C4933   1.400       .  A
C4933      C4934   1.403       .  A
C4933      H4942   1.083       .  S
C4934      C4937   1.367       .  A
S4935      C4936   1.720       .  A
C4936      C4937   1.385       .  A
C4937      H4943   1.083       .  S
S4938      C4939   1.722       .  A
C4939      C4940   1.387       .  A
C4940      H4944   1.083       .  S
C4945      S4951   1.711       .  A
C4945      C4950   1.386       .  A
C4945      C4946   1.405       .  A
C4946      C4947   1.405       .  A
C4946      H4957   1.083       .  S
C4947      C4956   1.376       .  A
C4947      C4948   1.387       .  A
C4948      S4954   1.702       .  A
C4948      C4949   1.400       .  A
C4949      C4950   1.400       .  A
C4949      H4958   1.083       .  S
C4950      C4953   1.369       .  A
S4951      C4952   1.726       .  A
C4952      C4953   1.386       .  A
C4953      H4959   1.083       .  S
S4954      C4955   1.724       .  A
C4955      C4956   1.388       .  A
C4956      H4960   1.083       .  S
C4961      S4967   1.705       .  A
C4961      C4966   1.388       .  A
C4961      C4962   1.401       .  A
C4962      C4963   1.402       .  A
C4962      H4973   1.083       .  S
C4963      C4972   1.371       .  A
C4963      C4964   1.388       .  A
C4964      S4970   1.706       .  A
C4964      C4965   1.402       .  A
C4965      C4966   1.402       .  A
C4965      H4974   1.083       .  S
C4966      C4969   1.372       .  A
S4967      C4968   1.723       .  A
C4968      C4969   1.386       .  A
C4969      H4975   1.083   1_554  S
S4970      C4971   1.722       .  A
C4971      C4972   1.385       .  A
C4972      H4976   1.083       .  S
C4977      S4983   1.714       .  A
C4977      C4982   1.386       .  A
C4977      C4978   1.406       .  A
C4978      C4979   1.407   1_545  A
C4978      H4989   1.083   1_545  S
C4979      C4988   1.375       .  A
C4979      C4980   1.387       .  A
C4980      S4986   1.706       .  A
C4980      C4981   1.399   1_565  A
C4981      C4982   1.400       .  A
C4981      H4990   1.083       .  S
C4982      C4985   1.368       .  A
S4983      C4984   1.726       .  A
C4984      C4985   1.386       .  A
C4985      H4991   1.083       .  S
S4986      C4987   1.722       .  A
C4987      C4988   1.391       .  A
C4988      H4992   1.083       .  S
C4993      S4999   1.715       .  A
C4993      C4998   1.387       .  A
C4993      C4994   1.409   1_556  A
C4994      C4995   1.409       .  A
C4994      H5005   1.083       .  S
C4995      C5004   1.380       .  A
C4995      C4996   1.387       .  A
C4996      S5002   1.699       .  A
C4996      C4997   1.398   1_554  A
C4997      C4998   1.398       .  A
C4997      H5006   1.084       .  S
C4998      C5001   1.369       .  A
S4999      C5000   1.725       .  A
C5000      C5001   1.384       .  A
C5001      H5007   1.084       .  S
S5002      C5003   1.723       .  A
C5003      C5004   1.392       .  A
C5004      H5008   1.083       .  S
C5009      S5015   1.694       .  A
C5009      C5014   1.387       .  A
C5009      C5010   1.393       .  A
C5010      C5011   1.394       .  A
C5010      H5021   1.083       .  S
C5011      C5020   1.361       .  A
C5011      C5012   1.387       .  A
C5012      S5018   1.717       .  A
C5012      C5013   1.409       .  A
C5013      C5014   1.410       .  A
C5013      H5022   1.083       .  S
C5014      C5017   1.379       .  A
S5015      C5016   1.720       .  A
C5016      C5017   1.392       .  A
C5017      H5023   1.083       .  S
S5018      C5019   1.726       .  A
C5019      C5020   1.380       .  A
C5020      H5024   1.084       .  S
C5025      S5031   1.717       .  A
C5025      C5030   1.386       .  A
C5025      C5026   1.406       .  A
C5026      C5027   1.407       .  A
C5026      H5037   1.083       .  S
C5027      C5036   1.375       .  A
C5027      C5028   1.387       .  A
C5028      S5034   1.706       .  A
C5028      C5029   1.399       .  A
C5029      C5030   1.401       .  A
C5029      H5038   1.083       .  S
C5030      C5033   1.366       .  A
S5031      C5032   1.722       .  A
C5032      C5033   1.385       .  A
C5033      H5039   1.084       .  S
S5034      C5035   1.723       .  A
C5035      C5036   1.389       .  A
C5036      H5040   1.083       .  S
