geometry optimzed in LAMMPS
_audit_creation_date              2020-12-01 
_audit_creation_method            'lammps2cif' 
_symmetry_space_group_name_H-M    'P1' 
_symmetry_Int_Tables_number       1 
_symmetry_cell_setting            triclinic 
loop_ 
_symmetry_equiv_pos_as_xyz 
  x,y,z 
_cell_length_a                    35.00676136 
_cell_length_b                    34.960020688078316 
_cell_length_c                    46.08891925749283 
_cell_angle_alpha                 90.17192035530078 
_cell_angle_beta                  90.16307372492365 
_cell_angle_gamma                 89.60584421535289 
loop_ 
_atom_site_label 
_atom_site_type_symbol 
_atom_site_fract_x 
_atom_site_fract_y 
_atom_site_fract_z 
_atom_site_charge 
O1          O  0.48725183  0.29667761  0.32481359    -0.84000
C2          C  0.02992664  0.42600706  0.26316357     0.95400
O3          O  0.01711583  0.39517377  0.25261111    -0.73100
O4          O  0.01818801  0.31981996  0.24669462    -0.76700
Al5        Al  0.48865577  0.35758130  0.27006903     1.49000
C6          C  0.03559289  0.28838226  0.25280481     0.90700
O7          O  0.08703918  0.33292969  0.29387238    -0.82900
O8          O  0.04895305  0.35582311  0.35770348    -0.76400
Al9        Al  0.03735250  0.31160841  0.30690799     1.90100
O10         O  0.08163272  0.39216746  0.31095255    -0.75500
O11         O  0.48003576  0.40427441  0.33263599    -0.75400
O12         O  0.02893986  0.43283684  0.29057112    -0.81000
O13         O  0.45798593  0.39478879  0.28763187    -0.79200
O14         O  0.01888207  0.35805271  0.29907428    -1.15400
O15         O  0.45627450  0.31989889  0.28650651    -0.74600
C16         C  0.45688730  0.29962497  0.30951843     0.96200
C17         C  0.10016486  0.36644207  0.29868240     0.92600
Al18       Al  0.03280124  0.39406081  0.32215188     1.55600
O19         O  0.03720086  0.27529787  0.27803327    -0.79200
C20         C  0.45686312  0.41241934  0.31175773     0.96700
C21         C  0.06682118  0.32188710  0.35942665     0.91600
O22         O  0.06561133  0.29854884  0.33872454    -0.84500
O23         O  0.04526673  0.23299877  0.42472747    -0.84000
C24         C  0.18051884  0.27515184  0.48422615     0.95400
O25         O  0.15265102  0.25660734  0.49361116    -0.73100
O26         O  0.08197484  0.26091150  0.50360041    -0.76700
Al27       Al  0.11272425  0.23087345  0.47656209     1.49000
C28         C  0.04890029  0.27361775  0.49921140     0.90700
O29         O  0.08075414  0.32794997  0.45898883    -0.82900
O30         O  0.11437533  0.28175982  0.38808045    -0.76400
Al31       Al  0.06192486  0.28149681  0.44199831     1.90100
O32         O  0.13570854  0.32686933  0.43378615    -0.75500
O33         O  0.16607847  0.22591396  0.41691696    -0.75400
O34         O  0.18400780  0.28153404  0.45726877    -0.81000
O35         O  0.14658023  0.19855595  0.45737578    -0.79200
O36         O  0.10804991  0.26227907  0.44741189    -1.15400
O37         O  0.07253555  0.20063436  0.46131190    -0.74600
C38         C  0.05043129  0.20188549  0.43917187     0.96200
C39         C  0.11211292  0.34316520  0.45036275     0.92600
Al40       Al  0.14664157  0.27719107  0.42530576     1.55600
O41         O  0.03448322  0.26822016  0.47512980    -0.79200
C42         C  0.16968039  0.20038716  0.43651686     0.96700
C43         C  0.08463995  0.30398509  0.38625597     0.91600
O44         O  0.06434438  0.30738475  0.40785364    -0.84500
O45         O  0.24942948  0.43876960  0.32587537    -0.84000
C46         C  0.20704992  0.30252850  0.26636340     0.95400
O47         O  0.22735454  0.32935537  0.25741630    -0.73100
O48         O  0.22215062  0.40017106  0.24691042    -0.76700
Al49       Al  0.25221817  0.37012744  0.27456870     1.49000
C50         C  0.20940526  0.43339160  0.25089188     0.90700
O51         O  0.15488776  0.40379384  0.29115543    -0.82900
O52         O  0.20196777  0.36889124  0.36246823    -0.76400
Al53       Al  0.20114503  0.42218470  0.30839005     1.90100
O54         O  0.15534743  0.34944708  0.31707459    -0.75500
O55         O  0.25440982  0.31548614  0.33346576    -0.75400
O56         O  0.19867551  0.30006451  0.29308681    -0.81000
O57         O  0.28449720  0.33691821  0.29477408    -0.79200
O58         O  0.22019536  0.37545725  0.30328179    -1.15400
O59         O  0.28192644  0.41093706  0.28965677    -0.74600
C60         C  0.28057543  0.43339216  0.31161870     0.96200
C61         C  0.13958471  0.37257860  0.29992825     0.92600
Al62       Al  0.20437510  0.33694456  0.32521113     1.55600
O63         O  0.21527624  0.44839226  0.27474390    -0.79200
C64         C  0.28090723  0.31255865  0.31470008     0.96700
C65         C  0.18102097  0.39946472  0.36464471     0.91600
O66         O  0.17580816  0.41900279  0.34291669    -0.84500
O67         O  0.18457714  0.49777290  0.42713179    -0.84000
C68         C  0.05796081  0.45256637  0.48779687     0.95400
O69         O  0.08859430  0.46534779  0.49875841    -0.73100
O70         O  0.16343364  0.46662438  0.50474781    -0.76700
Al71       Al  0.12589196  0.49512676  0.48203042     1.49000
C72         C  0.19298712  0.44780351  0.49702922     0.90700
O73         O  0.15047194  0.39739566  0.45507221    -0.82900
O74         O  0.12906653  0.43300439  0.39238263    -0.76400
Al75       Al  0.16568216  0.44717987  0.44101925     1.90100
O76         O  0.09113128  0.40120589  0.43994253    -0.75500
O77         O  0.08007318  0.50312020  0.41851855    -0.75400
O78         O  0.05154621  0.45402030  0.46034553    -0.81000
O79         O  0.08816863  0.02485047  0.46370777    -0.79200
O80         O  0.12742086  0.46467412  0.45401465    -1.15400
O81         O  0.16277621  0.02806067  0.46596850    -0.74600
C82         C  0.18256646  0.02809218  0.44284011     0.96200
C83         C  0.11761046  0.38294582  0.45119772     0.92600
Al84       Al  0.09081977  0.45050926  0.42921815     1.55600
O85         O  0.20247939  0.44543437  0.47067126    -0.79200
C86         C  0.07086406  0.02584040  0.43942762     0.96700
C87         C  0.16498366  0.41770657  0.39167195     0.91600
O88         O  0.18941988  0.42175770  0.41255909    -0.84500
O89         O  0.29842400  0.24519842  0.32153585    -0.84000
C90         C  0.43005729  0.19792219  0.26775409     0.95400
O91         O  0.39805609  0.20948880  0.25811221    -0.73100
O92         O  0.31961957  0.21734960  0.24992047    -0.76700
Al93       Al  0.36347462  0.24326568  0.27495601     1.49000
C94         C  0.29050047  0.19570164  0.25699034     0.90700
O95         O  0.34450356  0.15224149  0.28906620    -0.82900
O96         O  0.36381028  0.19414522  0.36291210    -0.76400
Al97       Al  0.32251242  0.19857447  0.30499074     1.90100
O98         O  0.39259593  0.14961091  0.32029118    -0.75500
O99         O  0.41688076  0.25313003  0.33535732    -0.75400
O100        O  0.43765739  0.19827462  0.29505823    -0.81000
O101        O  0.40387848  0.27178431  0.29008944    -0.79200
O102        O  0.36368337  0.21627955  0.30719229    -1.15400
O103        O  0.33004742  0.28091327  0.29057822    -0.74600
C104        C  0.30516136  0.27797779  0.31040031     0.96200
C105        C  0.37182681  0.13439998  0.30131120     0.92600
Al106      Al  0.40070074  0.20044349  0.32813631     1.55600
O107        O  0.28088108  0.18835975  0.28356979    -0.79200
C108        C  0.42331248  0.27464447  0.31325173     0.96700
C109        C  0.33172826  0.17449337  0.36251194     0.91600
O110        O  0.31320853  0.17088428  0.33916633    -0.84500
O111        O  0.23406950  0.17720832  0.42516986    -0.84000
C112        C  0.28011702  0.05156774  0.48719569     0.95400
O113        O  0.26753598  0.08266016  0.49784674    -0.73100
O114        O  0.26595851  0.15760613  0.50314781    -0.76700
Al115      Al  0.23763629  0.12007011  0.48081513     1.49000
C116        C  0.28381545  0.18741718  0.49537921     0.90700
O117        O  0.33396183  0.14630438  0.45357731    -0.82900
O118        O  0.29768222  0.12238096  0.39049987    -0.76400
Al119      Al  0.28430646  0.15970796  0.43932198     1.90100
O120        O  0.33283804  0.08673336  0.43854426    -0.75500
O121        O  0.22939461  0.07113053  0.41835553    -0.75400
O122        O  0.28049362  0.04550591  0.45971562    -0.81000
O123        O  0.20804173  0.08209610  0.46313348    -0.79200
O124        O  0.26781362  0.12120477  0.45268529    -1.15400
O125        O  0.20429360  0.15711370  0.46453597    -0.74600
C126        C  0.20417648  0.17602200  0.44096635     0.96200
C127        C  0.35003624  0.11425968  0.44948488     0.92600
Al128      Al  0.28249478  0.08433711  0.42822645     1.55600
O129        O  0.28521054  0.19711706  0.46896663    -0.79200
C130        C  0.20686941  0.06307871  0.43963133     0.96700
C131        C  0.31226550  0.15842588  0.38926299     0.91600
O132        O  0.30844494  0.18294283  0.41017258    -0.84500
O133        O  0.44132543  0.47929188  0.32131795    -0.84000
C134        C  0.31077976  0.03166398  0.26803388     0.95400
O135        O  0.34290555  0.02032704  0.25873599    -0.73100
O136        O  0.42049641  0.00859733  0.24997541    -0.76700
Al137      Al  0.37560937  0.48493192  0.27541383     1.49000
C138        C  0.45066196  0.02902579  0.25703716     0.90700
O139        O  0.40007587  0.07510353  0.28970779    -0.82900
O140        O  0.37812245  0.03616753  0.36273780    -0.76400
Al141      Al  0.41949776  0.02723431  0.30512037     1.90100
O142        O  0.35109686  0.07979758  0.31983634    -0.75500
O143        O  0.32310988  0.47870639  0.33664504    -0.75400
O144        O  0.30341936  0.03229031  0.29534576    -0.81000
O145        O  0.33396348  0.45881654  0.29126194    -0.79200
O146        O  0.37733851  0.01200624  0.30763429    -1.15400
O147        O  0.40692919  0.44553908  0.29056444    -0.74600
C148        C  0.43266500  0.44708198  0.30988978     0.96200
C149        C  0.37314048  0.09402604  0.30152876     0.92600
Al150      Al  0.34103888  0.03006496  0.32836689     1.55600
O151        O  0.46136409  0.03527622  0.28362244    -0.79200
C152        C  0.31495841  0.45736453  0.31471644     0.96700
C153        C  0.41118077  0.05388418  0.36196862     0.91600
O154        O  0.43063263  0.05435872  0.33902908    -0.84500
O155        O  0.50370391  0.04105199  0.42936473    -0.84000
C156        C  0.45098416  0.17195452  0.48178300     0.95400
O157        O  0.46200183  0.13974927  0.49115780    -0.73100
O158        O  0.47297624  0.06198240  0.50034854    -0.76700
Al159      Al  0.99758910  0.10696947  0.47505698     1.49000
C160        C  0.45213555  0.03208527  0.49310283     0.90700
O161        O  0.40830857  0.08405699  0.46004871    -0.82900
O162        O  0.44809528  0.10507669  0.38717898    -0.76400
Al163      Al  0.45569317  0.06365236  0.44507661     1.90100
O164        O  0.40446148  0.13289977  0.42963953    -0.75500
O165        O  0.00578056  0.15924672  0.41378891    -0.75400
O166        O  0.45166501  0.17974099  0.45454506    -0.81000
O167        O  0.02437197  0.14865147  0.45954983    -0.79200
O168        O  0.47144302  0.10554546  0.44239561    -1.15400
O169        O  0.03704455  0.07547291  0.46039185    -0.74600
C170        C  0.03580041  0.04971828  0.44104058     0.96200
C171        C  0.39006855  0.11149075  0.44828208     0.92600
Al172      Al  0.45418661  0.14212975  0.42152080     1.55600
O173        O  0.44600958  0.02171010  0.46640101    -0.79200
C174        C  0.02653625  0.16747638  0.43599723     0.96700
C175        C  0.42981061  0.07231319  0.38796244     0.91600
O176        O  0.42885022  0.05295333  0.41094795    -0.84500
O177        O  0.41197525  0.27985401  0.04703017    -0.84000
C178        C  0.37268718  0.13062591  0.05617635     0.95400
O179        O  0.40625844  0.14317626  0.06219435    -0.73100
O180        O  0.44506631  0.18701850  0.03004614    -0.76700
Al181      Al  0.42643383  0.19469769  0.06680641     1.49000
C182        C  0.43669246  0.19747999  0.00496908     0.90700
O183        O  0.34109371  0.21824670  0.00722795    -0.82900
O184        O  0.32593484  0.24441439  0.09012327    -0.76400
Al185      Al  0.37748197  0.24687063  0.02841441     1.90100
O186        O  0.30226365  0.20589127  0.04301402    -0.75500
O187        O  0.36619484  0.16751721  0.10948723    -0.75400
O188        O  0.34362536  0.15077302  0.05547559    -0.81000
O189        O  0.41672627  0.19913393  0.10575847    -0.79200
O190        O  0.38114531  0.21262345  0.05622766    -1.15400
O191        O  0.45035566  0.24383551  0.07289481    -0.74600
C192        C  0.43900908  0.27659264  0.06512949     0.96200
C193        C  0.30940032  0.20624175  0.01616948     0.92600
Al194      Al  0.33857042  0.19475246  0.07388970     1.55600
O195        O  0.41362789  0.22464285  0.00118369    -0.79200
C196        C  0.40170759  0.17041135  0.11620156     0.96700
C197        C  0.31993579  0.27053988  0.07075795     0.91600
O198        O  0.34026265  0.27313287  0.04832152    -0.84500
O199        O  0.03797752  0.15735935  0.20443521    -0.84000
C200        C  0.39034609  0.11649750  0.19479019     0.95400
O201        O  0.40256707  0.15009661  0.18843826    -0.73100
O202        O  0.44635677  0.19120611  0.21963830    -0.76700
Al203      Al  0.45378393  0.17052007  0.18322725     1.49000
C204        C  0.45577474  0.18284070  0.24495530     0.90700
O205        O  0.47812320  0.08657093  0.24357846    -0.82900
O206        O  0.00435056  0.07073716  0.16119304    -0.76400
Al207      Al  0.00574230  0.12287572  0.22267990     1.90100
O208        O  0.46641278  0.04629592  0.20839046    -0.75500
O209        O  0.42639259  0.10857526  0.14155831    -0.75400
O210        O  0.41062943  0.08740828  0.19563241    -0.81000
O211        O  0.45770960  0.15934673  0.14443599    -0.79200
O212        O  0.47181422  0.12555928  0.19458531    -1.15400
O213        O  0.50290266  0.19406196  0.17655237    -0.74600
C214        C  0.03532256  0.18310277  0.18537705     0.96200
C215        C  0.46737789  0.05413795  0.23515072     0.92600
Al216      Al  0.45454178  0.08233078  0.17729464     1.55600
O217        O  0.48214841  0.15901831  0.24936415    -0.79200
C218        C  0.42885920  0.14391611  0.13441689     0.96700
C219        C  0.03075736  0.06527271  0.18051938     0.91600
O220        O  0.03313467  0.08564005  0.20310517    -0.84500
O221        O  0.32424518  0.44391408  0.04756351    -0.84000
C222        C  0.36527294  0.09139519  0.05634444     0.95400
O223        O  0.33206391  0.07891705  0.06361954    -0.73100
O224        O  0.28894301  0.03381973  0.03456629    -0.76700
Al225      Al  0.31227765  0.02730399  0.06994579     1.49000
C226        C  0.29663674  0.02546268  0.00894551     0.90700
O227        O  0.39455087  0.00420147  0.00720145    -0.82900
O228        O  0.41263638  0.47807357  0.08946805    -0.76400
Al229      Al  0.35859153  0.47633736  0.02891216     1.90100
O230        O  0.43564637  0.01559416  0.04178844    -0.75500
O231        O  0.37536659  0.05666882  0.10939757    -0.75400
O232        O  0.39441892  0.07130482  0.05474509    -0.81000
O233        O  0.32605804  0.02343892  0.10818902    -0.79200
O234        O  0.35676779  0.00993813  0.05715076    -1.15400
O235        O  0.28943484  0.47816389  0.07740412    -0.74600
C236        C  0.29919807  0.44607558  0.06724209     0.96200
C237        C  0.42720902  0.01497414  0.01514019     0.92600
Al238      Al  0.40046975  0.02772553  0.07336873     1.55600
O239        O  0.32157282  0.00050939  0.00339345    -0.79200
C240        C  0.34046130  0.05331190  0.11727546     0.96700
C241        C  0.41753312  0.45151740  0.07011510     0.91600
O242        O  0.39642697  0.44880253  0.04789875    -0.84500
O243        O  0.20237927  0.06886969  0.20193988    -0.84000
C244        C  0.35121273  0.10891241  0.19482239     0.95400
O245        O  0.33887718  0.07544970  0.18820841    -0.73100
O246        O  0.29511721  0.03603277  0.21966732    -0.76700
Al247      Al  0.28760424  0.05513846  0.18294084     1.49000
C248        C  0.28474813  0.04482608  0.24469580     0.90700
O249        O  0.26165963  0.13916602  0.24266021    -0.82900
O250        O  0.23826704  0.15658278  0.16018456    -0.76400
Al251      Al  0.23443737  0.10324605  0.22100124     1.90100
O252        O  0.27558018  0.17927066  0.20807162    -0.75500
O253        O  0.31557985  0.11638482  0.14130380    -0.75400
O254        O  0.33094544  0.13791322  0.19590211    -0.81000
O255        O  0.28370881  0.06583911  0.14409837    -0.79200
O256        O  0.26928029  0.10032772  0.19370968    -1.15400
O257        O  0.23865946  0.03067747  0.17624856    -0.74600
C258        C  0.20581706  0.04185777  0.18390283     0.96200
C259        C  0.27355004  0.17126170  0.23471395     0.92600
Al260      Al  0.28748119  0.14343684  0.17688071     1.55600
O261        O  0.25697864  0.06724431  0.24828444    -0.79200
C262        C  0.31287080  0.08086951  0.13434584     0.96700
C263        C  0.21164814  0.16204961  0.17924079     0.91600
O264        O  0.20813301  0.14064766  0.20104873    -0.84500
O265        O  0.28617991  0.31855853  0.04718138    -0.84000
C266        C  0.13849286  0.35891716  0.05705788     0.95400
O267        O  0.15154185  0.32527511  0.06306529    -0.73100
O268        O  0.19613491  0.28364675  0.03241369    -0.76700
Al269      Al  0.20290964  0.30504391  0.06868723     1.49000
C270        C  0.20497654  0.29205428  0.00705955     0.90700
O271        O  0.22355910  0.39008941  0.00862807    -0.82900
O272        O  0.25105941  0.40546925  0.09128292    -0.76400
Al273      Al  0.25276602  0.35342500  0.02926558     1.90100
O274        O  0.21254246  0.42963339  0.04444746    -0.75500
O275        O  0.17379942  0.36661585  0.11024718    -0.75400
O276        O  0.15795244  0.38819924  0.05638031    -0.81000
O277        O  0.20675807  0.31662000  0.10734594    -0.79200
O278        O  0.21963699  0.35023991  0.05747612    -1.15400
O279        O  0.25233363  0.28184391  0.07549854    -0.74600
C280        C  0.28432039  0.29253838  0.06615721     0.96200
C281        C  0.21200165  0.42216131  0.01766792     0.92600
Al282      Al  0.20151341  0.39335702  0.07500566     1.55600
O283        O  0.22960760  0.31728902  0.00254255    -0.79200
C284        C  0.17714325  0.33122258  0.11691803     0.96700
C285        C  0.27708247  0.41084527  0.07180622     0.91600
O286        O  0.27935417  0.39042095  0.04919918    -0.84500
O287        O  0.16378551  0.19569369  0.20325876    -0.84000
C288        C  0.12175811  0.34341152  0.19304655     0.95400
O289        O  0.15538275  0.33063404  0.18685828    -0.73100
O290        O  0.19768562  0.28777200  0.21796845    -0.76700
Al291      Al  0.17644075  0.27947331  0.18175440     1.49000
C292        C  0.19008891  0.27821075  0.24336313     0.90700
O293        O  0.09306001  0.25877591  0.24177686    -0.82900
O294        O  0.07630393  0.22976660  0.16009807    -0.76400
Al295      Al  0.12923612  0.22922001  0.22148431     1.90100
O296        O  0.05295057  0.26896394  0.20600949    -0.75500
O297        O  0.11436326  0.30680330  0.13997497    -0.75400
O298        O  0.09267419  0.32375231  0.19355085    -0.81000
O299        O  0.16457923  0.27429057  0.14324347    -0.79200
O300        O  0.13166276  0.26222250  0.19315344    -1.15400
O301        O  0.20060730  0.23015041  0.17546461    -0.74600
C302        C  0.18989973  0.19788076  0.18439542     0.96200
C303        C  0.06110649  0.27039353  0.23247321     0.92600
Al304      Al  0.08821217  0.27967295  0.17553061     1.55600
O305        O  0.16584617  0.25262161  0.24783920    -0.79200
C306        C  0.14973206  0.30363221  0.13336194     0.96700
C307        C  0.07087469  0.20433214  0.18001711     0.91600
O308        O  0.09180595  0.20218730  0.20234497    -0.84500
O309        O  0.45246829  0.40455300  0.04546569    -0.84000
C310        C  0.09938909  0.36604715  0.05794462     0.95400
O311        O  0.08615938  0.39966851  0.06403756    -0.73100
O312        O  0.03957261  0.44211337  0.03483270    -0.76700
Al313      Al  0.03408736  0.41848719  0.07025146     1.49000
C314        C  0.03299628  0.43371887  0.00903905     0.90700
O315        O  0.01898154  0.33265202  0.00916218    -0.82900
O316        O  0.48665865  0.31717413  0.09049006    -0.76400
Al317      Al  0.48755115  0.36942083  0.02865139     1.90100
O318        O  0.02787222  0.29363714  0.04553766    -0.75500
O319        O  0.06411142  0.35654350  0.11138685    -0.75400
O320        O  0.08054773  0.33633092  0.05843894    -0.81000
O321        O  0.03070458  0.40591179  0.10859079    -0.79200
O322        O  0.01879270  0.37312222  0.05811275    -1.15400
O323        O  0.48418400  0.43933329  0.07707621    -0.74600
C324        C  0.45307825  0.42951174  0.06558097     0.96200
C325        C  0.03038211  0.30078469  0.01893353     0.92600
Al326      Al  0.03686424  0.33023236  0.07589487     1.55600
O327        O  0.01142938  0.40623618  0.00307707    -0.79200
C328        C  0.06076987  0.39192597  0.11779542     0.96700
C329        C  0.46157419  0.31157178  0.07010486     0.91600
O330        O  0.46034933  0.33181159  0.04742129    -0.84500
O331        O  0.07791958  0.02998465  0.20467489    -0.84000
C332        C  0.11450970  0.38253058  0.19289299     0.95400
O333        O  0.08101925  0.39604743  0.18689825    -0.73100
O334        O  0.03936493  0.44429087  0.21588432    -0.76700
Al335      Al  0.06303791  0.44843166  0.18024910     1.49000
C336        C  0.04857244  0.45054453  0.24158509     0.90700
O337        O  0.15016170  0.46333615  0.24090373    -0.82900
O338        O  0.16497163  0.49380987  0.15909276    -0.76400
Al339      Al  0.11318343  0.49473339  0.22130615     1.90100
O340        O  0.18840606  0.45316937  0.20435603    -0.75500
O341        O  0.12437419  0.41650990  0.13934260    -0.75400
O342        O  0.14431362  0.40121713  0.19265949    -0.81000
O343        O  0.07537557  0.45055463  0.14177448    -0.79200
O344        O  0.10872660  0.46323849  0.19209373    -1.15400
O345        O  0.04303637  0.49865572  0.17291150    -0.74600
C346        C  0.05291688  0.02966212  0.18458933     0.96200
C347        C  0.18180357  0.45145526  0.23107419     0.92600
Al348      Al  0.15115978  0.44417448  0.17442069     1.55600
O349        O  0.07678706  0.47125069  0.24723346    -0.79200
C350        C  0.08908982  0.42014345  0.13286590     0.96700
C351        C  0.17078195  0.01932392  0.17914948     0.91600
O352        O  0.15054348  0.02130283  0.20183138    -0.84500
O353        O  0.48725236  0.29667551  0.82481298    -0.84000
C354        C  0.02992656  0.42600736  0.76316411     0.95400
O355        O  0.01711516  0.39517456  0.75261181    -0.73100
O356        O  0.01818756  0.31982076  0.74669507    -0.76700
Al357      Al  0.48865625  0.35757967  0.77006858     1.49000
C358        C  0.03559226  0.28838305  0.75280507     0.90700
O359        O  0.08703911  0.33292979  0.79387203    -0.82900
O360        O  0.04895344  0.35582315  0.85770374    -0.76400
Al361      Al  0.03735253  0.31160881  0.80690819     1.90100
O362        O  0.08163324  0.39216728  0.81095286    -0.75500
O363        O  0.48003550  0.40427307  0.83263521    -0.75400
O364        O  0.02894028  0.43283724  0.79057185    -0.81000
O365        O  0.45798641  0.39478761  0.78763094    -0.79200
O366        O  0.01888197  0.35805320  0.79907475    -1.15400
O367        O  0.45627480  0.31989767  0.78650624    -0.74600
C368        C  0.45688774  0.29962345  0.80951806     0.96200
C369        C  0.10016516  0.36644180  0.79868235     0.92600
Al370      Al  0.03280156  0.39406109  0.82215232     1.55600
O371        O  0.03719978  0.27529819  0.77803351    -0.79200
C372        C  0.45686332  0.41241836  0.81175663     0.96700
C373        C  0.06682199  0.32188721  0.85942660     0.91600
O374        O  0.06561215  0.29854921  0.83872439    -0.84500
O375        O  0.04526730  0.23299926  0.92472774    -0.84000
C376        C  0.18051962  0.27515211  0.98422644     0.95400
O377        O  0.15265246  0.25660717  0.99361125    -0.73100
O378        O  0.08197618  0.26091343  0.00360040    -0.76700
Al379      Al  0.11272468  0.23087417  0.97656242     1.49000
C380        C  0.04890183  0.27361945  0.99921145     0.90700
O381        O  0.08075512  0.32795097  0.95898847    -0.82900
O382        O  0.11437631  0.28175987  0.88808041    -0.76400
Al383      Al  0.06192564  0.28149761  0.94199826     1.90100
O384        O  0.13570946  0.32686996  0.93378578    -0.75500
O385        O  0.16607907  0.22591428  0.91691774    -0.75400
O386        O  0.18400825  0.28153512  0.95726891    -0.81000
O387        O  0.14657950  0.19855560  0.95737598    -0.79200
O388        O  0.10805062  0.26227975  0.94741204    -1.15400
O389        O  0.07253515  0.20063551  0.96131285    -0.74600
C390        C  0.05043114  0.20188639  0.93917228     0.96200
C391        C  0.11211399  0.34316603  0.95036230     0.92600
Al392      Al  0.14664233  0.27719152  0.92530593     1.55600
O393        O  0.03448434  0.26822128  0.97512982    -0.79200
C394        C  0.16967997  0.20038690  0.93651755     0.96700
C395        C  0.08464087  0.30398523  0.88625589     0.91600
O396        O  0.06434543  0.30738503  0.90785349    -0.84500
O397        O  0.24943034  0.43876897  0.82587480    -0.84000
C398        C  0.20705025  0.30252752  0.76636385     0.95400
O399        O  0.22735468  0.32935460  0.75741638    -0.73100
O400        O  0.22215082  0.40017007  0.74690994    -0.76700
Al401      Al  0.25221859  0.37012666  0.77456828     1.49000
C402        C  0.20940574  0.43339092  0.75089159     0.90700
O403        O  0.15488846  0.40379303  0.79115492    -0.82900
O404        O  0.20196847  0.36889158  0.86246796    -0.76400
Al405      Al  0.20114584  0.42218405  0.80838948     1.90100
O406        O  0.15534801  0.34944647  0.81707438    -0.75500
O407        O  0.25441080  0.31548649  0.83346602    -0.75400
O408        O  0.19867656  0.30006353  0.79308723    -0.81000
O409        O  0.28449758  0.33691766  0.79477373    -0.79200
O410        O  0.22019605  0.37545665  0.80328148    -1.15400
O411        O  0.28192717  0.41093650  0.78965609    -0.74600
C412        C  0.28057645  0.43339144  0.81161762     0.96200
C413        C  0.13958520  0.37257813  0.79992798     0.92600
Al414      Al  0.20437594  0.33694426  0.82521116     1.55600
O415        O  0.21527731  0.44839141  0.77474335    -0.79200
C416        C  0.28090818  0.31255884  0.81469989     0.96700
C417        C  0.18102162  0.39946487  0.86464419     0.91600
O418        O  0.17580859  0.41900260  0.84291592    -0.84500
O419        O  0.18457780  0.49777394  0.92713108    -0.84000
C420        C  0.05796132  0.45256680  0.98779603     0.95400
O421        O  0.08859474  0.46534835  0.99875732    -0.73100
O422        O  0.16343432  0.46662496  0.00474688    -0.76700
Al423      Al  0.12589238  0.49512738  0.98202947     1.49000
C424        C  0.19298806  0.44780467  0.99702843     0.90700
O425        O  0.15047293  0.39739664  0.95507157    -0.82900
O426        O  0.12906726  0.43300514  0.89238180    -0.76400
Al427      Al  0.16568296  0.44718083  0.94101844     1.90100
O428        O  0.09113240  0.40120645  0.93994153    -0.75500
O429        O  0.08007293  0.50312046  0.91851760    -0.75400
O430        O  0.05154664  0.45402032  0.96034458    -0.81000
O431        O  0.08816858  0.02484972  0.96370832    -0.79200
O432        O  0.12742141  0.46467492  0.95401362    -1.15400
O433        O  0.16277621  0.02806064  0.96596887    -0.74600
C434        C  0.18256734  0.02809171  0.94284085     0.96200
C435        C  0.11761149  0.38294666  0.95119697     0.92600
Al436      Al  0.09082031  0.45050972  0.92921720     1.55600
O437        O  0.20248040  0.44543560  0.97067033    -0.79200
C438        C  0.07086435  0.02583968  0.93942775     0.96700
C439        C  0.16498422  0.41770731  0.89167117     0.91600
O440        O  0.18942059  0.42175863  0.91255829    -0.84500
O441        O  0.29842448  0.24519882  0.82153605    -0.84000
C442        C  0.43005729  0.19792245  0.76775287     0.95400
O443        O  0.39805592  0.20948860  0.75811117    -0.73100
O444        O  0.31961946  0.21734966  0.74992020    -0.76700
Al445      Al  0.36347455  0.24326540  0.77495544     1.49000
C446        C  0.29049981  0.19570272  0.75698993     0.90700
O447        O  0.34450123  0.15224124  0.78906627    -0.82900
O448        O  0.36381020  0.19414424  0.86291141    -0.76400
Al449      Al  0.32251150  0.19857461  0.80499072     1.90100
O450        O  0.39259520  0.14961064  0.82028993    -0.75500
O451        O  0.41688080  0.25312885  0.83535681    -0.75400
O452        O  0.43765719  0.19827414  0.79505712    -0.81000
O453        O  0.40387856  0.27178362  0.79008904    -0.79200
O454        O  0.36368308  0.21627900  0.80719147    -1.15400
O455        O  0.33004770  0.28091301  0.79057787    -0.74600
C456        C  0.30516177  0.27797773  0.81040048     0.96200
C457        C  0.37182480  0.13439973  0.80131081     0.92600
Al458      Al  0.40070046  0.20044268  0.82813537     1.55600
O459        O  0.28087995  0.18836134  0.78356947    -0.79200
C460        C  0.42331261  0.27464339  0.81325128     0.96700
C461        C  0.33172753  0.17449321  0.86251155     0.91600
O462        O  0.31320731  0.17088467  0.83916623    -0.84500
O463        O  0.23406885  0.17720880  0.92517056    -0.84000
C464        C  0.28011955  0.05156902  0.98719640     0.95400
O465        O  0.26753908  0.08266148  0.99784734    -0.73100
O466        O  0.26595847  0.15760743  0.00314781    -0.76700
Al467      Al  0.23763742  0.12007027  0.98081566     1.49000
C468        C  0.28381528  0.18741841  0.99537928     0.90700
O469        O  0.33396190  0.14630677  0.95357678    -0.82900
O470        O  0.29768184  0.12238140  0.89050011    -0.76400
Al471      Al  0.28430610  0.15970938  0.93932205     1.90100
O472        O  0.33283867  0.08673547  0.93854428    -0.75500
O473        O  0.22939552  0.07113019  0.91835637    -0.75400
O474        O  0.28049564  0.04550697  0.95971618    -0.81000
O475        O  0.20804383  0.08209485  0.96313473    -0.79200
O476        O  0.26781417  0.12120564  0.95268547    -1.15400
O477        O  0.20429305  0.15711263  0.96453633    -0.74600
C478        C  0.20417598  0.17602166  0.94096678     0.96200
C479        C  0.35003656  0.11426216  0.94948457     0.92600
Al480      Al  0.28249559  0.08433796  0.92822686     1.55600
O481        O  0.28521028  0.19711855  0.96896666    -0.79200
C482        C  0.20687086  0.06307789  0.93963247     0.96700
C483        C  0.31226480  0.15842646  0.88926283     0.91600
O484        O  0.30844377  0.18294382  0.91017197    -0.84500
O485        O  0.44132643  0.47929132  0.82131644    -0.84000
C486        C  0.31077888  0.03166509  0.76803507     0.95400
O487        O  0.34290495  0.02032850  0.75873720    -0.73100
O488        O  0.42049592  0.00859855  0.74997576    -0.76700
Al489      Al  0.37561005  0.48493235  0.77541272     1.49000
C490        C  0.45066118  0.02902790  0.75703786     0.90700
O491        O  0.40007297  0.07510345  0.78970756    -0.82900
O492        O  0.37812176  0.03616783  0.86273868    -0.76400
Al493      Al  0.41949626  0.02723515  0.80512039     1.90100
O494        O  0.35109572  0.07979810  0.81983767    -0.75500
O495        O  0.32311103  0.47870568  0.83664402    -0.75400
O496        O  0.30341832  0.03229083  0.79534687    -0.81000
O497        O  0.33396391  0.45881685  0.79126054    -0.79200
O498        O  0.37733762  0.01200669  0.80763554    -1.15400
O499        O  0.40692986  0.44553886  0.79056289    -0.74600
C500        C  0.43266575  0.44708145  0.80988833     0.96200
C501        C  0.37313813  0.09402607  0.80152899     0.92600
Al502      Al  0.34103799  0.03006542  0.82836812     1.55600
O503        O  0.46136258  0.03527889  0.78362305    -0.79200
C504        C  0.31495908  0.45736447  0.81471562     0.96700
C505        C  0.41118003  0.05388502  0.86196882     0.91600
O506        O  0.43063092  0.05435989  0.83902906    -0.84500
O507        O  0.50370293  0.04105216  0.92936477    -0.84000
C508        C  0.45098402  0.17195463  0.98178231     0.95400
O509        O  0.46200186  0.13974940  0.99115679    -0.73100
O510        O  0.47297718  0.06198253  0.00034822    -0.76700
Al511      Al  0.99758954  0.10696908  0.97505686     1.49000
C512        C  0.45213544  0.03208583  0.99310259     0.90700
O513        O  0.40830876  0.08406005  0.96004910    -0.82900
O514        O  0.44809531  0.10507754  0.88717832    -0.76400
Al515      Al  0.45569261  0.06365393  0.94507676     1.90100
O516        O  0.40446151  0.13290112  0.92963835    -0.75500
O517        O  0.00578108  0.15924697  0.91378911    -0.75400
O518        O  0.45166510  0.17974174  0.95454435    -0.81000
O519        O  0.02437234  0.14865154  0.95954996    -0.79200
O520        O  0.47144306  0.10554632  0.94239459    -1.15400
O521        O  0.03704490  0.07547254  0.96039154    -0.74600
C522        C  0.03580086  0.04971782  0.94104071     0.96200
C523        C  0.39006875  0.11149333  0.94828174     0.92600
Al524      Al  0.45418667  0.14213069  0.92151985     1.55600
O525        O  0.44600792  0.02171172  0.96640086    -0.79200
C526        C  0.02653660  0.16747673  0.93599786     0.96700
C527        C  0.42981001  0.07231412  0.88796245     0.91600
O528        O  0.42884926  0.05295520  0.91094817    -0.84500
O529        O  0.41197555  0.27985451  0.54702958    -0.84000
C530        C  0.37268775  0.13062640  0.55617569     0.95400
O531        O  0.40625891  0.14317697  0.56219378    -0.73100
O532        O  0.44506798  0.18702071  0.53004666    -0.76700
Al533      Al  0.42643381  0.19469874  0.56680680     1.49000
C534        C  0.43669293  0.19748057  0.50496951     0.90700
O535        O  0.34109326  0.21824678  0.50722792    -0.82900
O536        O  0.32593437  0.24441402  0.59012312    -0.76400
Al537      Al  0.37748169  0.24687085  0.52841429     1.90100
O538        O  0.30226330  0.20589124  0.54301388    -0.75500
O539        O  0.36619412  0.16751650  0.60948667    -0.75400
O540        O  0.34362577  0.15077348  0.55547475    -0.81000
O541        O  0.41672520  0.19913380  0.60575882    -0.79200
O542        O  0.38114519  0.21262395  0.55622764    -1.15400
O543        O  0.45035466  0.24383697  0.57289613    -0.74600
C544        C  0.43900876  0.27659378  0.56512967     0.96200
C545        C  0.30940002  0.20624123  0.51616946     0.92600
Al546      Al  0.33857024  0.19475240  0.57388932     1.55600
O547        O  0.41362703  0.22464228  0.50118365    -0.79200
C548        C  0.40170680  0.17041088  0.61620135     0.96700
C549        C  0.31993528  0.27053961  0.57075811     0.91600
O550        O  0.34026255  0.27313332  0.54832165    -0.84500
O551        O  0.03797801  0.15735798  0.70443367    -0.84000
C552        C  0.39034572  0.11649937  0.69479055     0.95400
O553        O  0.40256706  0.15009785  0.68843786    -0.73100
O554        O  0.44635794  0.19120821  0.71963689    -0.76700
Al555      Al  0.45378428  0.17052059  0.68322593     1.49000
C556        C  0.45577536  0.18284201  0.74495397     0.90700
O557        O  0.47812378  0.08657230  0.74357832    -0.82900
O558        O  0.00435216  0.07073726  0.66119247    -0.76400
Al559      Al  0.00574274  0.12287569  0.72267920     1.90100
O560        O  0.46641203  0.04629682  0.70839102    -0.75500
O561        O  0.42639098  0.10857478  0.64155858    -0.75400
O562        O  0.41062896  0.08740979  0.69563352    -0.81000
O563        O  0.45770937  0.15934549  0.64443489    -0.79200
O564        O  0.47181417  0.12555983  0.69458462    -1.15400
O565        O  0.50290321  0.19406199  0.67655003    -0.74600
C566        C  0.03532204  0.18310297  0.68537706     0.96200
C567        C  0.46737752  0.05413920  0.73515093     0.92600
Al568      Al  0.45454072  0.08233100  0.67729499     1.55600
O569        O  0.48214879  0.15901946  0.74936278    -0.79200
C570        C  0.42885828  0.14391515  0.63441640     0.96700
C571        C  0.03075813  0.06527222  0.68051940     0.91600
O572        O  0.03313457  0.08563926  0.70310523    -0.84500
O573        O  0.32424371  0.44391411  0.54756352    -0.84000
C574        C  0.36527312  0.09139574  0.55634416     0.95400
O575        O  0.33206393  0.07891779  0.56361904    -0.73100
O576        O  0.28894264  0.03382056  0.53456575    -0.76700
Al577      Al  0.31227709  0.02730473  0.56994523     1.49000
C578        C  0.29663496  0.02546244  0.50894514     0.90700
O579        O  0.39454965  0.00420275  0.50720081    -0.82900
O580        O  0.41263548  0.47807419  0.58946782    -0.76400
Al581      Al  0.35859030  0.47633724  0.52891209     1.90100
O582        O  0.43564530  0.01559385  0.54178818    -0.75500
O583        O  0.37536601  0.05666886  0.60939740    -0.75400
O584        O  0.39441907  0.07130508  0.55474521    -0.81000
O585        O  0.32605706  0.02343966  0.60818858    -0.79200
O586        O  0.35676703  0.00993864  0.55715022    -1.15400
O587        O  0.28943418  0.47816374  0.57740477    -0.74600
C588        C  0.29919698  0.44607547  0.56724243     0.96200
C589        C  0.42720797  0.01497426  0.51513978     0.92600
Al590      Al  0.40046900  0.02772542  0.57336850     1.55600
O591        O  0.32157101  0.00050888  0.50339294    -0.79200
C592        C  0.34046035  0.05331214  0.61727520     0.96700
C593        C  0.41753213  0.45151774  0.57011494     0.91600
O594        O  0.39642562  0.44880240  0.54789888    -0.84500
O595        O  0.20237909  0.06887013  0.70194053    -0.84000
C596        C  0.35121235  0.10891392  0.69482253     0.95400
O597        O  0.33887687  0.07545120  0.68820914    -0.73100
O598        O  0.29511689  0.03603385  0.71966829    -0.76700
Al599      Al  0.28760414  0.05513927  0.68294153     1.49000
C600        C  0.28474769  0.04482711  0.74469666     0.90700
O601        O  0.26165883  0.13916713  0.74266021    -0.82900
O602        O  0.23826568  0.15658258  0.66018467    -0.76400
Al603      Al  0.23443686  0.10324670  0.72100162     1.90100
O604        O  0.27557907  0.17927153  0.70807134    -0.75500
O605        O  0.31557898  0.11638519  0.64130372    -0.75400
O606        O  0.33094488  0.13791500  0.69590159    -0.81000
O607        O  0.28370865  0.06583921  0.64409900    -0.79200
O608        O  0.26927986  0.10032847  0.69371004    -1.15400
O609        O  0.23865943  0.03067814  0.67624914    -0.74600
C610        C  0.20581729  0.04185801  0.68390316     0.96200
C611        C  0.27354910  0.17126263  0.73471384     0.92600
Al612      Al  0.28748022  0.14343755  0.67688058     1.55600
O613        O  0.25697817  0.06724556  0.74828516    -0.79200
C614        C  0.31287056  0.08087001  0.63434609     0.96700
C615        C  0.21164689  0.16204931  0.67924096     0.91600
O616        O  0.20813212  0.14064762  0.70104904    -0.84500
O617        O  0.28617941  0.31855874  0.54718222    -0.84000
C618        C  0.13849167  0.35891607  0.55705925     0.95400
O619        O  0.15154065  0.32527399  0.56306629    -0.73100
O620        O  0.19613269  0.28364694  0.53241350    -0.76700
Al621      Al  0.20290854  0.30504252  0.56868726     1.49000
C622        C  0.20497532  0.29205354  0.50705973     0.90700
O623        O  0.22355719  0.39008786  0.50862877    -0.82900
O624        O  0.25105904  0.40546824  0.59128361    -0.76400
Al625      Al  0.25276498  0.35342425  0.52926612     1.90100
O626        O  0.21254091  0.42963194  0.54444830    -0.75500
O627        O  0.17380007  0.36661409  0.61024839    -0.75400
O628        O  0.15795135  0.38819821  0.55638221    -0.81000
O629        O  0.20675789  0.31661759  0.60734601    -0.79200
O630        O  0.21963600  0.35023871  0.55747670    -1.15400
O631        O  0.25233265  0.28184198  0.57549747    -0.74600
C632        C  0.28431978  0.29253780  0.56615710     0.96200
C633        C  0.21200001  0.42215997  0.51766886     0.92600
Al634      Al  0.20151277  0.39335566  0.57500679     1.55600
O635        O  0.22960776  0.31728749  0.50254286    -0.79200
C636        C  0.17714362  0.33122046  0.61691857     0.96700
C637        C  0.27708146  0.41084497  0.57180654     0.91600
O638        O  0.27935257  0.39042098  0.54919934    -0.84500
O639        O  0.16378370  0.19569303  0.70325868    -0.84000
C640        C  0.12175852  0.34341138  0.69304658     0.95400
O641        O  0.15538269  0.33063381  0.68685823    -0.73100
O642        O  0.19768469  0.28777221  0.71796898    -0.76700
Al643      Al  0.17644049  0.27947290  0.68175497     1.49000
C644        C  0.19008891  0.27821024  0.74336347     0.90700
O645        O  0.09305988  0.25877717  0.74177735    -0.82900
O646        O  0.07630341  0.22976685  0.66009841    -0.76400
Al647      Al  0.12923534  0.22922014  0.72148476     1.90100
O648        O  0.05295031  0.26896469  0.70600987    -0.75500
O649        O  0.11436344  0.30680227  0.63997518    -0.75400
O650        O  0.09267416  0.32375230  0.69355081    -0.81000
O651        O  0.16457908  0.27428898  0.64324419    -0.79200
O652        O  0.13166238  0.26222248  0.69315391    -1.15400
O653        O  0.20060701  0.23015007  0.67546589    -0.74600
C654        C  0.18989848  0.19788032  0.68439582     0.96200
C655        C  0.06110635  0.27039455  0.73247370     0.92600
Al656      Al  0.08821197  0.27967304  0.67553087     1.55600
O657        O  0.16584648  0.25262051  0.74783960    -0.79200
C658        C  0.14973209  0.30363065  0.63336235     0.96700
C659        C  0.07087375  0.20433287  0.68001750     0.91600
O660        O  0.09180440  0.20218842  0.70234581    -0.84500
O661        O  0.45246790  0.40455409  0.54546503    -0.84000
C662        C  0.09938798  0.36604624  0.55794535     0.95400
O663        O  0.08615808  0.39966759  0.56403809    -0.73100
O664        O  0.03957091  0.44211308  0.53483337    -0.76700
Al665      Al  0.03408602  0.41848623  0.57025204     1.49000
C666        C  0.03299577  0.43371821  0.50903971     0.90700
O667        O  0.01898063  0.33265062  0.50916242    -0.82900
O668        O  0.48665827  0.31717584  0.59049007    -0.76400
Al669      Al  0.48755104  0.36942174  0.52865104     1.90100
O670        O  0.02787106  0.29363583  0.54553792    -0.75500
O671        O  0.06411044  0.35654248  0.61138724    -0.75400
O672        O  0.08054651  0.33632989  0.55843934    -0.81000
O673        O  0.03070356  0.40591067  0.60859145    -0.79200
O674        O  0.01879165  0.37312131  0.55811302    -1.15400
O675        O  0.48418330  0.43933458  0.57707567    -0.74600
C676        C  0.45307763  0.42951278  0.56558049     0.96200
C677        C  0.03038094  0.30078298  0.51893394     0.92600
Al678      Al  0.03686298  0.33023144  0.57589516     1.55600
O679        O  0.01142988  0.40623475  0.50307731    -0.79200
C680        C  0.06076875  0.39192516  0.61779594     0.96700
C681        C  0.46157385  0.31157314  0.57010479     0.91600
O682        O  0.46034917  0.33181264  0.54742113    -0.84500
O683        O  0.07791973  0.02998402  0.70467562    -0.84000
C684        C  0.11450962  0.38253031  0.69289336     0.95400
O685        O  0.08101947  0.39604714  0.68689891    -0.73100
O686        O  0.03936538  0.44429048  0.71588498    -0.76700
Al687      Al  0.06303778  0.44843117  0.68024977     1.49000
C688        C  0.04857284  0.45054471  0.74158589     0.90700
O689        O  0.15016208  0.46333582  0.74090392    -0.82900
O690        O  0.16497139  0.49380954  0.65909281    -0.76400
Al691      Al  0.11318361  0.49473324  0.72130644     1.90100
O692        O  0.18840611  0.45316912  0.70435598    -0.75500
O693        O  0.12437343  0.41650927  0.63934291    -0.75400
O694        O  0.14431386  0.40121693  0.69265982    -0.81000
O695        O  0.07537475  0.45055389  0.64177500    -0.79200
O696        O  0.10872656  0.46323822  0.69209407    -1.15400
O697        O  0.04303588  0.49865510  0.67291229    -0.74600
C698        C  0.05291740  0.02966153  0.68458968     0.96200
C699        C  0.18180397  0.45145472  0.73107398     0.92600
Al700      Al  0.15115959  0.44417414  0.67442083     1.55600
O701        O  0.07678724  0.47125085  0.74723401    -0.79200
C702        C  0.08908919  0.42014250  0.63286637     0.96700
C703        C  0.17078204  0.01932445  0.67915015     0.91600
O704        O  0.15054368  0.02130317  0.70183170    -0.84500
O705        O  0.48725121  0.79667475  0.32481279    -0.84000
C706        C  0.02992613  0.92600848  0.26316491     0.95400
O707        O  0.01711348  0.89517642  0.25261254    -0.73100
O708        O  0.01818741  0.81982283  0.24669400    -0.76700
Al709      Al  0.48865443  0.85757908  0.27006852     1.49000
C710        C  0.03559181  0.78838469  0.25280332     0.90700
O711        O  0.08703851  0.83292944  0.29387242    -0.82900
O712        O  0.04895113  0.85582096  0.35770384    -0.76400
Al713      Al  0.03735160  0.81160836  0.30690724     1.90100
O714        O  0.08163221  0.89216643  0.31095411    -0.75500
O715        O  0.48003180  0.90427153  0.33263517    -0.75400
O716        O  0.02894017  0.93283779  0.29057297    -0.81000
O717        O  0.45798278  0.89478482  0.28763110    -0.79200
O718        O  0.01888090  0.85805309  0.29907454    -1.15400
O719        O  0.45627415  0.81989495  0.28650514    -0.74600
C720        C  0.45688703  0.79962147  0.30951760     0.96200
C721        C  0.10016437  0.86644123  0.29868327     0.92600
Al722      Al  0.03280015  0.89406035  0.32215285     1.55600
O723        O  0.03719869  0.77529876  0.27803144    -0.79200
C724        C  0.45685986  0.91241641  0.31175664     0.96700
C725        C  0.06681978  0.82188496  0.35942630     0.91600
O726        O  0.06561047  0.79854757  0.33872361    -0.84500
O727        O  0.04526785  0.73299706  0.42472836    -0.84000
C728        C  0.18052008  0.77515147  0.48422518     0.95400
O729        O  0.15265269  0.75660700  0.49361017    -0.73100
O730        O  0.08197632  0.76091187  0.50360088    -0.76700
Al731      Al  0.11272552  0.73087288  0.47656216     1.49000
C732        C  0.04890152  0.77361791  0.49921233     0.90700
O733        O  0.08075412  0.82794895  0.45898752    -0.82900
O734        O  0.11437469  0.78175762  0.38807972    -0.76400
Al735      Al  0.06192532  0.78149515  0.44199836     1.90100
O736        O  0.13570843  0.82686764  0.43378462    -0.75500
O737        O  0.16607878  0.72591242  0.41691632    -0.75400
O738        O  0.18400895  0.78153351  0.45726749    -0.81000
O739        O  0.14658129  0.69855473  0.45737549    -0.79200
O740        O  0.10805062  0.76227788  0.44741166    -1.15400
O741        O  0.07253673  0.70063345  0.46131309    -0.74600
C742        C  0.05043256  0.70188443  0.43917247     0.96200
C743        C  0.11211266  0.84316406  0.45036060     0.92600
Al744      Al  0.14664176  0.77718954  0.42530483     1.55600
O745        O  0.03448408  0.76821986  0.47513076    -0.79200
C746        C  0.16968130  0.70038597  0.43651642     0.96700
C747        C  0.08463877  0.80398241  0.38625542     0.91600
O748        O  0.06434338  0.80738158  0.40785317    -0.84500
O749        O  0.24943023  0.93876917  0.32587206    -0.84000
C750        C  0.20704769  0.80252799  0.26636348     0.95400
O751        O  0.22735068  0.82935530  0.25741527    -0.73100
O752        O  0.22214786  0.90017053  0.24690843    -0.76700
Al753      Al  0.25221636  0.87012649  0.27456591     1.49000
C754        C  0.20940365  0.93339153  0.25089040     0.90700
O755        O  0.15488740  0.90379246  0.29115438    -0.82900
O756        O  0.20197078  0.86889334  0.36246700    -0.76400
Al757      Al  0.20114526  0.92218410  0.30838804     1.90100
O758        O  0.15534777  0.84944709  0.31707534    -0.75500
O759        O  0.25441191  0.81548742  0.33346432    -0.75400
O760        O  0.19867540  0.80006372  0.29308731    -0.81000
O761        O  0.28449592  0.83691561  0.29476986    -0.79200
O762        O  0.22019540  0.87545687  0.30328004    -1.15400
O763        O  0.28192626  0.91093623  0.28965293    -0.74600
C764        C  0.28057571  0.93339200  0.31161455     0.96200
C765        C  0.13958439  0.87257806  0.29992850     0.92600
Al766      Al  0.20437638  0.83694508  0.32521066     1.55600
O767        O  0.21527578  0.94839175  0.27474212    -0.79200
C768        C  0.28090803  0.81255819  0.31469723     0.96700
C769        C  0.18102305  0.89946632  0.36464310     0.91600
O770        O  0.17580893  0.91900326  0.34291479    -0.84500
O771        O  0.18457685  0.99777169  0.42713161    -0.84000
C772        C  0.05795978  0.95256274  0.48779379     0.95400
O773        O  0.08859349  0.96534328  0.49875576    -0.73100
O774        O  0.16343305  0.96661945  0.50474682    -0.76700
Al775      Al  0.12589133  0.99512317  0.48202970     1.49000
C776        C  0.19298744  0.94779973  0.49702801     0.90700
O777        O  0.15047114  0.89739432  0.45507051    -0.82900
O778        O  0.12906834  0.93300688  0.39238002    -0.76400
Al779      Al  0.16568198  0.94717826  0.44101817     1.90100
O780        O  0.09113188  0.90120440  0.43993747    -0.75500
O781        O  0.08007293  0.00312096  0.41851803    -0.75400
O782        O  0.05154558  0.95401729  0.46034243    -0.81000
O783        O  0.08816938  0.52485253  0.46370752    -0.79200
O784        O  0.12742047  0.96467231  0.45401299    -1.15400
O785        O  0.16277657  0.52806337  0.46596797    -0.74600
C786        C  0.18256726  0.52809388  0.44283995     0.96200
C787        C  0.11760987  0.88294455  0.45119444     0.92600
Al788      Al  0.09082010  0.95050894  0.42921537     1.55600
O789        O  0.20247934  0.94543130  0.47067013    -0.79200
C790        C  0.07086469  0.52584085  0.43942716     0.96700
C791        C  0.16498517  0.91770799  0.39167010     0.91600
O792        O  0.18942029  0.92175709  0.41255806    -0.84500
O793        O  0.29842591  0.74519860  0.32153661    -0.84000
C794        C  0.43005955  0.69791877  0.26775416     0.95400
O795        O  0.39805780  0.70948443  0.25811231    -0.73100
O796        O  0.31962149  0.71734357  0.24992068    -0.76700
Al797      Al  0.36347559  0.74326154  0.27495530     1.49000
C798        C  0.29050163  0.69569763  0.25699136     0.90700
O799        O  0.34450092  0.65223949  0.28906755    -0.82900
O800        O  0.36381246  0.69414165  0.36291161    -0.76400
Al801      Al  0.32251229  0.69857328  0.30499181     1.90100
O802        O  0.39259644  0.64960815  0.32028983    -0.75500
O803        O  0.41688171  0.75312632  0.33535684    -0.75400
O804        O  0.43765933  0.69827154  0.29505811    -0.81000
O805        O  0.40387844  0.77178079  0.29008897    -0.79200
O806        O  0.36368429  0.71627669  0.30719205    -1.15400
O807        O  0.33004748  0.78091024  0.29057585    -0.74600
C808        C  0.30516210  0.77797661  0.31039908     0.96200
C809        C  0.37182477  0.63439766  0.30131132     0.92600
Al810      Al  0.40070203  0.70044011  0.32813571     1.55600
O811        O  0.28088060  0.68835915  0.28357127    -0.79200
C812        C  0.42331251  0.77464108  0.31325099     0.96700
C813        C  0.33172966  0.67449123  0.36251194     0.91600
O814        O  0.31320843  0.67088353  0.33916708    -0.84500
O815        O  0.23407124  0.67720858  0.42516933    -0.84000
C816        C  0.28012069  0.55156843  0.48719510     0.95400
O817        O  0.26754007  0.58266089  0.49784649    -0.73100
O818        O  0.26596113  0.65760742  0.50314700    -0.76700
Al819      Al  0.23763918  0.62007057  0.48081490     1.49000
C820        C  0.28381740  0.68741861  0.49537840     0.90700
O821        O  0.33396306  0.64630584  0.45357878    -0.82900
O822        O  0.29768363  0.62238032  0.39050016    -0.76400
Al823      Al  0.28430834  0.65970897  0.43932211     1.90100
O824        O  0.33284063  0.58673525  0.43854446    -0.75500
O825        O  0.22939711  0.57113058  0.41835551    -0.75400
O826        O  0.28049661  0.54550678  0.45971509    -0.81000
O827        O  0.20804490  0.58209627  0.46313367    -0.79200
O828        O  0.26781570  0.62120536  0.45268478    -1.15400
O829        O  0.20429567  0.65711349  0.46453559    -0.74600
C830        C  0.20417814  0.67602163  0.44096583     0.96200
C831        C  0.35003792  0.61426135  0.44948632     0.92600
Al832      Al  0.28249730  0.58433763  0.42822638     1.55600
O833        O  0.28521175  0.69711903  0.46896577    -0.79200
C834        C  0.20687179  0.56307921  0.43963125     0.96700
C835        C  0.31226757  0.65842470  0.38926313     0.91600
O836        O  0.30844767  0.68294195  0.41017235    -0.84500
O837        O  0.44132422  0.97928992  0.32131560    -0.84000
C838        C  0.31077862  0.53166054  0.26803707     0.95400
O839        O  0.34290495  0.52032398  0.25873981    -0.73100
O840        O  0.42049625  0.50859599  0.24997814    -0.76700
Al841      Al  0.37560945  0.98493346  0.27540969     1.49000
C842        C  0.45066105  0.52902600  0.25703940     0.90700
O843        O  0.40007207  0.57510149  0.28970848    -0.82900
O844        O  0.37812105  0.53616894  0.36274056    -0.76400
Al845      Al  0.41949618  0.52723466  0.30512231     1.90100
O846        O  0.35109438  0.57979673  0.31983809    -0.75500
O847        O  0.32311027  0.97870660  0.33664038    -0.75400
O848        O  0.30341760  0.53228745  0.29534874    -0.81000
O849        O  0.33396262  0.95881821  0.29125678    -0.79200
O850        O  0.37733775  0.51200537  0.30763817    -1.15400
O851        O  0.40692893  0.94553917  0.29056020    -0.74600
C852        C  0.43266317  0.94708037  0.30988668     0.96200
C853        C  0.37313704  0.59402422  0.30152948     0.92600
Al854      Al  0.34103743  0.53006445  0.32837011     1.55600
O855        O  0.46136231  0.53527866  0.28362474    -0.79200
C856        C  0.31495817  0.95736538  0.31471156     0.96700
C857        C  0.41117939  0.55388580  0.36197052     0.91600
O858        O  0.43063023  0.55436057  0.33903065    -0.84500
O859        O  0.50370310  0.54105312  0.42936457    -0.84000
C860        C  0.45098627  0.67195580  0.48178252     0.95400
O861        O  0.46200455  0.63975099  0.49115718    -0.73100
O862        O  0.47297903  0.56198250  0.50034933    -0.76700
Al863      Al  0.99759116  0.60696913  0.47505710     1.49000
C864        C  0.45213786  0.53208526  0.49310346     0.90700
O865        O  0.40831088  0.58406123  0.46005222    -0.82900
O866        O  0.44809599  0.60507748  0.38717933    -0.76400
Al867      Al  0.45569380  0.56365480  0.44507817     1.90100
O868        O  0.40446217  0.63290023  0.42963953    -0.75500
O869        O  0.00578211  0.65924664  0.41378931    -0.75400
O870        O  0.45166582  0.67974231  0.45454426    -0.81000
O871        O  0.02437403  0.64865038  0.45954998    -0.79200
O872        O  0.47144395  0.60554691  0.44239515    -1.15400
O873        O  0.03704557  0.57547271  0.46039125    -0.74600
C874        C  0.03580132  0.54971865  0.44103988     0.96200
C875        C  0.39007013  0.61149338  0.44828388     0.92600
Al876      Al  0.45418700  0.64213078  0.42152033     1.55600
O877        O  0.44600997  0.52171200  0.46640158    -0.79200
C878        C  0.02653828  0.66747531  0.43599802     0.96700
C879        C  0.42980975  0.57231482  0.38796399     0.91600
O880        O  0.42884842  0.55295658  0.41095011    -0.84500
O881        O  0.41197675  0.77985359  0.04703395    -0.84000
C882        C  0.37268956  0.63062448  0.05617296     0.95400
O883        O  0.40626087  0.64317451  0.06219290    -0.73100
O884        O  0.44506955  0.68701892  0.03004692    -0.76700
Al885      Al  0.42643563  0.69469622  0.06680709     1.49000
C886        C  0.43669560  0.69748100  0.00496996     0.90700
O887        O  0.34109728  0.71824823  0.00722751    -0.82900
O888        O  0.32593454  0.74440944  0.09012368    -0.76400
Al889      Al  0.37748460  0.74687096  0.02841606     1.90100
O890        O  0.30226641  0.70589052  0.04301252    -0.75500
O891        O  0.36619508  0.66751161  0.10948509    -0.75400
O892        O  0.34362843  0.65077158  0.05547127    -0.81000
O893        O  0.41672590  0.69913021  0.10575906    -0.79200
O894        O  0.38114729  0.71262213  0.05622797    -1.15400
O895        O  0.45035760  0.74383450  0.07289755    -0.74600
C896        C  0.43901085  0.77659203  0.06513307     0.96200
C897        C  0.30940340  0.70624247  0.01616856     0.92600
Al898      Al  0.33857186  0.69474916  0.07388805     1.55600
O899        O  0.41363161  0.72464457  0.00118511    -0.79200
C900        C  0.40170729  0.67040691  0.11620102     0.96700
C901        C  0.31993620  0.77053646  0.07075921     0.91600
O902        O  0.34026440  0.77313145  0.04832367    -0.84500
O903        O  0.03798008  0.65735317  0.20443061    -0.84000
C904        C  0.39034625  0.61649638  0.19479119     0.95400
O905        O  0.40256751  0.65009485  0.18843860    -0.73100
O906        O  0.44635841  0.69120328  0.21963829    -0.76700
Al907      Al  0.45378450  0.67051747  0.18322708     1.49000
C908        C  0.45577723  0.68283829  0.24495503     0.90700
O909        O  0.47812540  0.58656932  0.24357884    -0.82900
O910        O  0.00435210  0.57073575  0.16119058    -0.76400
Al911      Al  0.00574477  0.62287262  0.22267797     1.90100
O912        O  0.46641238  0.54629360  0.20839196    -0.75500
O913        O  0.42639107  0.60857180  0.14155952    -0.75400
O914        O  0.41062965  0.58740707  0.19563502    -0.81000
O915        O  0.45770890  0.65934322  0.14443582    -0.79200
O916        O  0.47181483  0.62555671  0.19458520    -1.15400
O917        O  0.50290328  0.69405961  0.17655146    -0.74600
C918        C  0.03532179  0.68310116  0.18537659     0.96200
C919        C  0.46737814  0.55413664  0.23515213     0.92600
Al920      Al  0.45454078  0.58232799  0.17729581     1.55600
O921        O  0.48215210  0.65901672  0.24936356    -0.79200
C922        C  0.42885830  0.64391215  0.13441706     0.96700
C923        C  0.03075802  0.56526982  0.18051741     0.91600
O924        O  0.03313426  0.58563563  0.20310364    -0.84500
O925        O  0.32424680  0.94391358  0.04756534    -0.84000
C926        C  0.36527541  0.59139362  0.05634103     0.95400
O927        O  0.33206565  0.57891618  0.06361630    -0.73100
O928        O  0.28894391  0.53381744  0.03456431    -0.76700
Al929      Al  0.31227877  0.52730356  0.06994378     1.49000
C930        C  0.29663957  0.52546250  0.00894380     0.90700
O931        O  0.39455547  0.50419764  0.00720158    -0.82900
O932        O  0.41263595  0.97807400  0.08946785    -0.76400
Al933      Al  0.35858984  0.97633880  0.02891289     1.90100
O934        O  0.43564926  0.51559206  0.04178918    -0.75500
O935        O  0.37536563  0.55667010  0.10939568    -0.75400
O936        O  0.39442066  0.57130306  0.05474244    -0.81000
O937        O  0.32605813  0.52343911  0.10818698    -0.79200
O938        O  0.35676919  0.50993694  0.05714955    -1.15400
O939        O  0.28943423  0.97816296  0.07740481    -0.74600
C940        C  0.29919885  0.94607468  0.06724341     0.96200
C941        C  0.42721287  0.51497169  0.01514077     0.92600
Al942      Al  0.40047072  0.52772478  0.07336788     1.55600
O943        O  0.32157752  0.50051059  0.00339154    -0.79200
C944        C  0.34046022  0.55331212  0.11727370     0.96700
C945        C  0.41753299  0.95151893  0.07011429     0.91600
O946        O  0.39642766  0.94880554  0.04789744    -0.84500
O947        O  0.20237825  0.56886935  0.20193991    -0.84000
C948        C  0.35121317  0.60891074  0.19482198     0.95400
O949        O  0.33887832  0.57544806  0.18820814    -0.73100
O950        O  0.29512213  0.53603374  0.21966982    -0.76700
Al951      Al  0.28760597  0.55513561  0.18294297     1.49000
C952        C  0.28474848  0.54482242  0.24469790     0.90700
O953        O  0.26166366  0.63915935  0.24266310    -0.82900
O954        O  0.23826437  0.65657900  0.16018714    -0.76400
Al955      Al  0.23443788  0.60324219  0.22100346     1.90100
O956        O  0.27557971  0.67926552  0.20807390    -0.75500
O957        O  0.31557618  0.61638266  0.14130381    -0.75400
O958        O  0.33094532  0.63791137  0.19590128    -0.81000
O959        O  0.28370908  0.56583399  0.14409994    -0.79200
O960        O  0.26928068  0.60032426  0.19371134    -1.15400
O961        O  0.23866084  0.53067309  0.17625348    -0.74600
C962        C  0.20581772  0.54185525  0.18390456     0.96200
C963        C  0.27355176  0.67125568  0.23471650     0.92600
Al964      Al  0.28747967  0.64343362  0.17688182     1.55600
O965        O  0.25697504  0.56723614  0.24828574    -0.79200
C966        C  0.31286931  0.58086716  0.13434604     0.96700
C967        C  0.21164734  0.66204738  0.17924461     0.91600
O968        O  0.20813491  0.64064745  0.20105378    -0.84500
O969        O  0.28618194  0.81855705  0.04718388    -0.84000
C970        C  0.13849311  0.85891670  0.05706002     0.95400
O971        O  0.15154163  0.82527430  0.06306700    -0.73100
O972        O  0.19613121  0.78364828  0.03241256    -0.76700
Al973      Al  0.20290938  0.80504145  0.06868655     1.49000
C974        C  0.20497646  0.79205325  0.00705882     0.90700
O975        O  0.22356104  0.89008518  0.00862815    -0.82900
O976        O  0.25106167  0.90546612  0.09128357    -0.76400
Al977      Al  0.25276836  0.85342204  0.02926634     1.90100
O978        O  0.21254405  0.92962970  0.04444740    -0.75500
O979        O  0.17380349  0.86661272  0.11024842    -0.75400
O980        O  0.15795344  0.88819801  0.05638226    -0.81000
O981        O  0.20676121  0.81661606  0.10734518    -0.79200
O982        O  0.21963817  0.85023722  0.05747630    -1.15400
O983        O  0.25233276  0.78183825  0.07549577    -0.74600
C984        C  0.28432064  0.79253457  0.06615782     0.96200
C985        C  0.21200242  0.92215705  0.01766817     0.92600
Al986      Al  0.20151553  0.89335438  0.07500649     1.55600
O987        O  0.22961183  0.81728438  0.00254263    -0.79200
C988        C  0.17714722  0.83121891  0.11691820     0.96700
C989        C  0.27708426  0.91084341  0.07180670     0.91600
O990        O  0.27935582  0.89041958  0.04919952    -0.84500
O991        O  0.16378246  0.69569169  0.20325989    -0.84000
C992        C  0.12176021  0.84341188  0.19304312     0.95400
O993        O  0.15538495  0.83063376  0.18685662    -0.73100
O994        O  0.19768377  0.78777107  0.21796923    -0.76700
Al995      Al  0.17644178  0.77947163  0.18175501     1.49000
C996        C  0.19008676  0.77820969  0.24336378     0.90700
O997        O  0.09305896  0.75877852  0.24177572    -0.82900
O998        O  0.07630302  0.72976551  0.16009754    -0.76400
Al999      Al  0.12923399  0.72922031  0.22148444     1.90100
O1000       O  0.05295066  0.76896748  0.20600761    -0.75500
O1001       O  0.11436629  0.80679913  0.13997241    -0.75400
O1002       O  0.09267587  0.82375301  0.19354622    -0.81000
O1003       O  0.16458289  0.77428753  0.14324402    -0.79200
O1004       O  0.13166275  0.76222200  0.19315289    -1.15400
O1005       O  0.20060751  0.73014786  0.17546771    -0.74600
C1006       C  0.18989843  0.69787847  0.18439787     0.96200
C1007       C  0.06110604  0.77039691  0.23247157     0.92600
Al1008     Al  0.08821327  0.77967253  0.17552839     1.55600
O1009       O  0.16584436  0.75262042  0.24783974    -0.79200
C1010       C  0.14973566  0.80362864  0.13336142     0.96700
C1011       C  0.07087282  0.70433242  0.18001720     0.91600
O1012       O  0.09180303  0.70218893  0.20234568    -0.84500
O1013       O  0.45246661  0.90455234  0.04546664    -0.84000
C1014       C  0.09938921  0.86604703  0.05794625     0.95400
O1015       O  0.08615948  0.89966878  0.06403812    -0.73100
O1016       O  0.03957326  0.94210953  0.03483055    -0.76700
Al1017     Al  0.03408703  0.91848753  0.07024999     1.49000
C1018       C  0.03299510  0.93371518  0.00903719     0.90700
O1019       O  0.01897937  0.83264960  0.00916265    -0.82900
O1020       O  0.48666112  0.81717547  0.09049252    -0.76400
Al1021     Al  0.48754941  0.86942036  0.02865253     1.90100
O1022       O  0.02787291  0.79363641  0.04553886    -0.75500
O1023       O  0.06410936  0.85654694  0.11138802    -0.75400
O1024       O  0.08054742  0.83633130  0.05844055    -0.81000
O1025       O  0.03070311  0.90591564  0.10858994    -0.79200
O1026       O  0.01879193  0.87312188  0.05811270    -1.15400
O1027       O  0.48418373  0.93933623  0.07707403    -0.74600
C1028       C  0.45307749  0.92951284  0.06558047     0.96200
C1029       C  0.03038135  0.80078286  0.01893443     0.92600
Al1030     Al  0.03686360  0.83023318  0.07589609     1.55600
O1031       O  0.01142623  0.90623377  0.00307592    -0.79200
C1032       C  0.06076790  0.89193008  0.11779540     0.96700
C1033       C  0.46157587  0.81157181  0.07010799     0.91600
O1034       O  0.46034949  0.83181142  0.04742442    -0.84500
O1035       O  0.07791712  0.52998036  0.20467491    -0.84000
C1036       C  0.11451143  0.88253113  0.19289056     0.95400
O1037       O  0.08102119  0.89604807  0.18689587    -0.73100
O1038       O  0.03936944  0.94428702  0.21588549    -0.76700
Al1039     Al  0.06303829  0.94843287  0.18025001     1.49000
C1040       C  0.04857350  0.95054571  0.24158666     0.90700
O1041       O  0.15016031  0.96333671  0.24090364    -0.82900
O1042       O  0.16497000  0.99381252  0.15909190    -0.76400
Al1043     Al  0.11318371  0.99473599  0.22130648     1.90100
O1044       O  0.18840517  0.95317245  0.20435554    -0.75500
O1045       O  0.12437258  0.91651367  0.13934189    -0.75400
O1046       O  0.14431495  0.90121855  0.19265880    -0.81000
O1047       O  0.07537412  0.95055920  0.14177474    -0.79200
O1048       O  0.10872649  0.96324043  0.19209408    -1.15400
O1049       O  0.04303424  0.99865754  0.17291590    -0.74600
C1050       C  0.05291691  0.52965912  0.18458717     0.96200
C1051       C  0.18180229  0.95145630  0.23107344     0.92600
Al1052     Al  0.15115941  0.94417688  0.17442011     1.55600
O1053       O  0.07678461  0.97125635  0.24723464    -0.79200
C1054       C  0.08908828  0.92014800  0.13286536     0.96700
C1055       C  0.17078228  0.51932200  0.17915032     0.91600
O1056       O  0.15054205  0.52130210  0.20183107    -0.84500
O1057       O  0.48725181  0.79667447  0.82481340    -0.84000
C1058       C  0.02992750  0.92600684  0.76316505     0.95400
O1059       O  0.01711489  0.89517476  0.75261235    -0.73100
O1060       O  0.01818799  0.81982133  0.74669373    -0.76700
Al1061     Al  0.48865437  0.85757915  0.77006905     1.49000
C1062       C  0.03559256  0.78838319  0.75280298     0.90700
O1063       O  0.08703922  0.83292763  0.79387236    -0.82900
O1064       O  0.04895067  0.85581889  0.85770354    -0.76400
Al1065     Al  0.03735205  0.81160651  0.80690678     1.90100
O1066       O  0.08163260  0.89216431  0.81095460    -0.75500
O1067       O  0.48003213  0.90427247  0.83263535    -0.75400
O1068       O  0.02894107  0.93283596  0.79057299    -0.81000
O1069       O  0.45798287  0.89478542  0.78763142    -0.79200
O1070       O  0.01888128  0.85805138  0.79907426    -1.15400
O1071       O  0.45627407  0.81989509  0.78650613    -0.74600
C1072       C  0.45688736  0.79962134  0.80951841     0.96200
C1073       C  0.10016497  0.86643961  0.79868376     0.92600
Al1074     Al  0.03280026  0.89405849  0.82215276     1.55600
O1075       O  0.03719932  0.77529700  0.77803095    -0.79200
C1076       C  0.45686003  0.91241736  0.81175668     0.96700
C1077       C  0.06681987  0.82188313  0.85942577     0.91600
O1078       O  0.06561089  0.79854580  0.83872308    -0.84500
O1079       O  0.04526807  0.73299622  0.92472792    -0.84000
C1080       C  0.18051967  0.77515169  0.98422510     0.95400
O1081       O  0.15265186  0.75660770  0.99361015    -0.73100
O1082       O  0.08197566  0.76091158  0.00360017    -0.76700
Al1083     Al  0.11272534  0.73087286  0.97656200     1.49000
C1084       C  0.04890101  0.77361755  0.99921158     0.90700
O1085       O  0.08075348  0.82794850  0.95898631    -0.82900
O1086       O  0.11437507  0.78175654  0.88807928    -0.76400
Al1087     Al  0.06192507  0.78149437  0.94199759     1.90100
O1088       O  0.13570823  0.82686712  0.93378395    -0.75500
O1089       O  0.16607878  0.72591188  0.91691631    -0.75400
O1090       O  0.18400874  0.78153324  0.95726740    -0.81000
O1091       O  0.14658188  0.69855485  0.95737590    -0.79200
O1092       O  0.10805044  0.76227745  0.94741125    -1.15400
O1093       O  0.07253705  0.70063296  0.96131281    -0.74600
C1094       C  0.05043305  0.70188369  0.93917220     0.96200
C1095       C  0.11211217  0.84316351  0.95035979     0.92600
Al1096     Al  0.14664174  0.77718897  0.92530452     1.55600
O1097       O  0.03448352  0.76821974  0.97512993    -0.79200
C1098       C  0.16968161  0.70038576  0.93651686     0.96700
C1099       C  0.08463883  0.80398087  0.88625483     0.91600
O1100       O  0.06434315  0.80737989  0.90785232    -0.84500
O1101       O  0.24943029  0.93876855  0.82587349    -0.84000
C1102       C  0.20704833  0.80252734  0.76636417     0.95400
O1103       O  0.22735117  0.82935488  0.75741636    -0.73100
O1104       O  0.22214947  0.90017063  0.74690964    -0.76700
Al1105     Al  0.25221721  0.87012571  0.77456742     1.49000
C1106       C  0.20940494  0.93339147  0.75089151     0.90700
O1107       O  0.15488808  0.90379094  0.79115526    -0.82900
O1108       O  0.20197122  0.86889217  0.86246818    -0.76400
Al1109     Al  0.20114564  0.92218291  0.80838922     1.90100
O1110       O  0.15534820  0.84944585  0.81707652    -0.75500
O1111       O  0.25441224  0.81548595  0.83346583    -0.75400
O1112       O  0.19867605  0.80006256  0.79308816    -0.81000
O1113       O  0.28449621  0.83691414  0.79477140    -0.79200
O1114       O  0.22019603  0.87545583  0.80328136    -1.15400
O1115       O  0.28192715  0.91093504  0.78965504    -0.74600
C1116       C  0.28057600  0.93339139  0.81161617     0.96200
C1117       C  0.13958506  0.87257631  0.79992948     0.92600
Al1118     Al  0.20437687  0.83694383  0.82521186     1.55600
O1119       O  0.21527600  0.94839136  0.77474357    -0.79200
C1120       C  0.28090848  0.81255683  0.81469866     0.96700
C1121       C  0.18102355  0.89946515  0.86464414     0.91600
O1122       O  0.17580919  0.91900192  0.84291573    -0.84500
O1123       O  0.18457798  0.99777108  0.92713259    -0.84000
C1124       C  0.05796070  0.95256206  0.98779419     0.95400
O1125       O  0.08859429  0.96534245  0.99875607    -0.73100
O1126       O  0.16343372  0.96661952  0.00474718    -0.76700
Al1127     Al  0.12589169  0.99512279  0.98203009     1.49000
C1128       C  0.19298768  0.94779916  0.99702836     0.90700
O1129       O  0.15047104  0.89739348  0.95507051    -0.82900
O1130       O  0.12906898  0.93300627  0.89238054    -0.76400
Al1131     Al  0.16568239  0.94717765  0.94101864     1.90100
O1132       O  0.09113183  0.90120418  0.93993756    -0.75500
O1133       O  0.08007377  0.00312066  0.91851838    -0.75400
O1134       O  0.05154617  0.95401701  0.96034272    -0.81000
O1135       O  0.08816966  0.52485303  0.96370647    -0.79200
O1136       O  0.12742097  0.96467184  0.95401343    -1.15400
O1137       O  0.16277696  0.52806410  0.96596732    -0.74600
C1138       C  0.18256803  0.52809457  0.94283935     0.96200
C1139       C  0.11760980  0.88294394  0.95119420     0.92600
Al1140     Al  0.09082062  0.95050862  0.92921568     1.55600
O1141       O  0.20247938  0.94543013  0.97067050    -0.79200
C1142       C  0.07086448  0.52584109  0.93942645     0.96700
C1143       C  0.16498571  0.91770725  0.89167083     0.91600
O1144       O  0.18942093  0.92175658  0.91255879    -0.84500
O1145       O  0.29842676  0.74519712  0.82153774    -0.84000
C1146       C  0.43006062  0.69791849  0.76775447     0.95400
O1147       O  0.39805881  0.70948454  0.75811299    -0.73100
O1148       O  0.31962228  0.71734326  0.74992121    -0.76700
Al1149     Al  0.36347630  0.74326113  0.77495624     1.49000
C1150       C  0.29050229  0.69569726  0.75699176     0.90700
O1151       O  0.34450226  0.65223913  0.78906728    -0.82900
O1152       O  0.36381373  0.69414040  0.86291177    -0.76400
Al1153     Al  0.32251340  0.69857234  0.80499216     1.90100
O1154       O  0.39259754  0.64960726  0.82028979    -0.75500
O1155       O  0.41688304  0.75312520  0.83535759    -0.75400
O1156       O  0.43766073  0.69827086  0.79505839    -0.81000
O1157       O  0.40387881  0.77178048  0.79009009    -0.79200
O1158       O  0.36368536  0.71627583  0.80719269    -1.15400
O1159       O  0.33004795  0.78090931  0.79057718    -0.74600
C1160       C  0.30516259  0.77797520  0.81040056     0.96200
C1161       C  0.37182589  0.63439712  0.80131107     0.92600
Al1162     Al  0.40070331  0.70043905  0.82813607     1.55600
O1163       O  0.28088155  0.68835830  0.78357163    -0.79200
C1164       C  0.42331321  0.77464048  0.81325204     0.96700
C1165       C  0.33173092  0.67448999  0.86251191     0.91600
O1166       O  0.31321002  0.67088187  0.83916696    -0.84500
O1167       O  0.23407183  0.67720954  0.92516976    -0.84000
C1168       C  0.28012271  0.55156914  0.98719501     0.95400
O1169       O  0.26754287  0.58266207  0.99784640    -0.73100
O1170       O  0.26596229  0.65760820  0.00314663    -0.76700
Al1171     Al  0.23764088  0.62007094  0.98081489     1.49000
C1172       C  0.28381919  0.68741957  0.99537774     0.90700
O1173       O  0.33396426  0.64630627  0.95357751    -0.82900
O1174       O  0.29768431  0.62237999  0.89050010    -0.76400
Al1175     Al  0.28430921  0.65970966  0.93932173     1.90100
O1176       O  0.33284129  0.58673528  0.93854406    -0.75500
O1177       O  0.22939791  0.57113140  0.91835544    -0.75400
O1178       O  0.28049752  0.54550717  0.95971510    -0.81000
O1179       O  0.20804687  0.58209589  0.96313406    -0.79200
O1180       O  0.26781689  0.62120587  0.95268450    -1.15400
O1181       O  0.20429640  0.65711314  0.96453568    -0.74600
C1182       C  0.20417880  0.67602187  0.94096600     0.96200
C1183       C  0.35003885  0.61426164  0.94948535     0.92600
Al1184     Al  0.28249810  0.58433787  0.92822622     1.55600
O1185       O  0.28521395  0.69711952  0.96896554    -0.79200
C1186       C  0.20687299  0.56307967  0.93963145     0.96700
C1187       C  0.31226833  0.65842428  0.88926287     0.91600
O1188       O  0.30844805  0.68294204  0.91017168    -0.84500
O1189       O  0.44132408  0.97929108  0.82131543    -0.84000
C1190       C  0.31077934  0.53166134  0.76803675     0.95400
O1191       O  0.34290580  0.52032516  0.75873924    -0.73100
O1192       O  0.42049697  0.50859660  0.74997693    -0.76700
Al1193     Al  0.37560870  0.98493451  0.77541055     1.49000
C1194       C  0.45066186  0.52902691  0.75703854     0.90700
O1195       O  0.40007252  0.57510107  0.78970761    -0.82900
O1196       O  0.37812283  0.53616791  0.86273995    -0.76400
Al1197     Al  0.41949702  0.52723432  0.80512121     1.90100
O1198       O  0.35109578  0.57979632  0.81983811    -0.75500
O1199       O  0.32310979  0.97870699  0.83664157    -0.75400
O1200       O  0.30341858  0.53228766  0.79534845    -0.81000
O1201       O  0.33396181  0.95881913  0.79125773    -0.79200
O1202       O  0.37733874  0.51200506  0.80763743    -1.15400
O1203       O  0.40692830  0.94553982  0.79056065    -0.74600
C1204       C  0.43266320  0.94708134  0.80988686     0.96200
C1205       C  0.37313799  0.59402377  0.80152908     0.92600
Al1206     Al  0.34103870  0.53006398  0.82836968     1.55600
O1207       O  0.46136300  0.53527906  0.78362372    -0.79200
C1208       C  0.31495779  0.95736581  0.81471282     0.96700
C1209       C  0.41118096  0.55388498  0.86196985     0.91600
O1210       O  0.43063149  0.55436009  0.83902967    -0.84500
O1211       O  0.50370362  0.54105236  0.92936496    -0.84000
C1212       C  0.45098639  0.67195525  0.98178285     0.95400
O1213       O  0.46200514  0.63975029  0.99115740    -0.73100
O1214       O  0.47298041  0.56198197  0.00034906    -0.76700
Al1215     Al  0.99759130  0.60696901  0.97505652     1.49000
C1216       C  0.45213873  0.53208511  0.99310341     0.90700
O1217       O  0.40831152  0.58406149  0.96005175    -0.82900
O1218       O  0.44809799  0.60507677  0.88717872    -0.76400
Al1219     Al  0.45569433  0.56365459  0.94507804     1.90100
O1220       O  0.40446306  0.63289933  0.92963804    -0.75500
O1221       O  0.00578309  0.65924612  0.91378879    -0.75400
O1222       O  0.45166549  0.67974161  0.95454463    -0.81000
O1223       O  0.02437421  0.64865008  0.95954967    -0.79200
O1224       O  0.47144480  0.60554659  0.94239488    -1.15400
O1225       O  0.03704563  0.57547288  0.96039061    -0.74600
C1226       C  0.03580078  0.54971840  0.94103938     0.96200
C1227       C  0.39007091  0.61149316  0.94828285     0.92600
Al1228     Al  0.45418790  0.64213037  0.92151995     1.55600
O1229       O  0.44601008  0.52171200  0.96640155    -0.79200
C1230       C  0.02653890  0.66747479  0.93599756     0.96700
C1231       C  0.42981153  0.57231428  0.88796324     0.91600
O1232       O  0.42884940  0.55295631  0.91094966    -0.84500
O1233       O  0.41197605  0.77985374  0.54703237    -0.84000
C1234       C  0.37268936  0.63062472  0.55617213     0.95400
O1235       O  0.40626072  0.64317474  0.56219137    -0.73100
O1236       O  0.44506948  0.68702010  0.53004591    -0.76700
Al1237     Al  0.42643572  0.69469676  0.56680568     1.49000
C1238       C  0.43669509  0.69748190  0.50496888     0.90700
O1239       O  0.34109577  0.71824776  0.50722703    -0.82900
O1240       O  0.32593520  0.74441029  0.59012312    -0.76400
Al1241     Al  0.37748371  0.74687095  0.52841488     1.90100
O1242       O  0.30226580  0.70589049  0.54301275    -0.75500
O1243       O  0.36619646  0.66751222  0.60948448    -0.75400
O1244       O  0.34362801  0.65077200  0.55547125    -0.81000
O1245       O  0.41672703  0.69913072  0.60575756    -0.79200
O1246       O  0.38114711  0.71262244  0.55622695    -1.15400
O1247       O  0.45035714  0.74383494  0.57289609    -0.74600
C1248       C  0.43900998  0.77659229  0.56513172     0.96200
C1249       C  0.30940256  0.70624214  0.51616822     0.92600
Al1250     Al  0.33857218  0.69474966  0.57388775     1.55600
O1251       O  0.41363037  0.72464447  0.50118388    -0.79200
C1252       C  0.40170905  0.67040754  0.61619974     0.96700
C1253       C  0.31993632  0.77053687  0.57075853     0.91600
O1254       O  0.34026390  0.77313153  0.54832259    -0.84500
O1255       O  0.03797989  0.65735441  0.70442998    -0.84000
C1256       C  0.39034679  0.61649550  0.69478912     0.95400
O1257       O  0.40256764  0.65009427  0.68843676    -0.73100
O1258       O  0.44635605  0.69120074  0.71963827    -0.76700
Al1259     Al  0.45378426  0.67051773  0.68322680     1.49000
C1260       C  0.45577766  0.68283794  0.74495479     0.90700
O1261       O  0.47812579  0.58657062  0.74357819    -0.82900
O1262       O  0.00435045  0.57073431  0.66119108    -0.76400
Al1263     Al  0.00574482  0.62287339  0.72267759     1.90100
O1264       O  0.46641317  0.54629460  0.70839113    -0.75500
O1265       O  0.42639422  0.60857256  0.64155758    -0.75400
O1266       O  0.41063036  0.58740654  0.69563225    -0.81000
O1267       O  0.45771024  0.65934523  0.64443535    -0.79200
O1268       O  0.47181552  0.62555702  0.69458427    -1.15400
O1269       O  0.50290273  0.69406158  0.67655294    -0.74600
C1270       C  0.03532225  0.68310147  0.68537531     0.96200
C1271       C  0.46737856  0.55413760  0.73515113     0.92600
Al1272     Al  0.45454244  0.58232833  0.67729428     1.55600
O1273       O  0.48215498  0.65901883  0.74936267    -0.79200
C1274       C  0.42886038  0.64391317  0.63441583     0.96700
C1275       C  0.03075722  0.56526933  0.68051759     0.91600
O1276       O  0.03313436  0.58563623  0.70310314    -0.84500
O1277       O  0.32424683  0.94391398  0.54756502    -0.84000
C1278       C  0.36527436  0.59139391  0.55634011     0.95400
O1279       O  0.33206482  0.57891647  0.56361553    -0.73100
O1280       O  0.28894212  0.53381666  0.53456440    -0.76700
Al1281     Al  0.31227783  0.52730361  0.56994373     1.49000
C1282       C  0.29663792  0.52546182  0.50894379     0.90700
O1283       O  0.39455450  0.50419733  0.50720133    -0.82900
O1284       O  0.41263455  0.97807340  0.58946728    -0.76400
Al1285     Al  0.35858899  0.97633938  0.52891219     1.90100
O1286       O  0.43564818  0.51559191  0.54178893    -0.75500
O1287       O  0.37536513  0.55667111  0.60939492    -0.75400
O1288       O  0.39441975  0.57130308  0.55474141    -0.81000
O1289       O  0.32605783  0.52343984  0.60818682    -0.79200
O1290       O  0.35676814  0.50993702  0.55714932    -1.15400
O1291       O  0.28943368  0.97816358  0.57740405    -0.74600
C1292       C  0.29919888  0.94607521  0.56724297     0.96200
C1293       C  0.42721189  0.51497158  0.51514059     0.92600
Al1294     Al  0.40046978  0.52772514  0.57336734     1.55600
O1295       O  0.32157630  0.50051053  0.50339152    -0.79200
C1296       C  0.34045977  0.55331285  0.61727323     0.96700
C1297       C  0.41753203  0.95151879  0.57011339     0.91600
O1298       O  0.39642733  0.94880627  0.54789615    -0.84500
O1299       O  0.20237846  0.56886900  0.70193990    -0.84000
C1300       C  0.35121364  0.60891024  0.69482135     0.95400
O1301       O  0.33887841  0.57544757  0.68820753    -0.73100
O1302       O  0.29512191  0.53603367  0.71966957    -0.76700
Al1303     Al  0.28760590  0.55513569  0.68294263     1.49000
C1304       C  0.28474889  0.54482290  0.74469768     0.90700
O1305       O  0.26166292  0.63915991  0.74266297    -0.82900
O1306       O  0.23826557  0.65657945  0.66018694    -0.76400
Al1307     Al  0.23443786  0.60324237  0.72100319     1.90100
O1308       O  0.27558036  0.67926580  0.70807405    -0.75500
O1309       O  0.31557653  0.61638307  0.64130388    -0.75400
O1310       O  0.33094589  0.63791070  0.69590178    -0.81000
O1311       O  0.28370889  0.56583459  0.64409964    -0.79200
O1312       O  0.26928086  0.60032442  0.69371121    -1.15400
O1313       O  0.23866078  0.53067316  0.67625305    -0.74600
C1314       C  0.20581775  0.54185502  0.68390444     0.96200
C1315       C  0.27355192  0.67125600  0.73471658     0.92600
Al1316     Al  0.28748035  0.64343379  0.67688201     1.55600
O1317       O  0.25697559  0.56723696  0.74828566    -0.79200
C1318       C  0.31286925  0.58086794  0.63434574     0.96700
C1319       C  0.21164802  0.66204746  0.67924404     0.91600
O1320       O  0.20813483  0.64064715  0.70105292    -0.84500
O1321       O  0.28618207  0.81855779  0.54718360    -0.84000
C1322       C  0.13849320  0.85891837  0.55706043     0.95400
O1323       O  0.15154163  0.82527572  0.56306726    -0.73100
O1324       O  0.19613075  0.78364928  0.53241258    -0.76700
Al1325     Al  0.20290948  0.80504234  0.56868644     1.49000
C1326       C  0.20497656  0.79205368  0.50705879     0.90700
O1327       O  0.22356087  0.89008569  0.50862791    -0.82900
O1328       O  0.25106249  0.90546636  0.59128344    -0.76400
Al1329     Al  0.25276840  0.85342264  0.52926609     1.90100
O1330       O  0.21254447  0.92963046  0.54444715    -0.75500
O1331       O  0.17380477  0.86661355  0.61024873    -0.75400
O1332       O  0.15795364  0.88819950  0.55638300    -0.81000
O1333       O  0.20676226  0.81661683  0.60734493    -0.79200
O1334       O  0.21963834  0.85023799  0.55747614    -1.15400
O1335       O  0.25233286  0.78183872  0.57549523    -0.74600
C1336       C  0.28432077  0.79253522  0.56615732     0.96200
C1337       C  0.21200242  0.92215766  0.51766792     0.92600
Al1338     Al  0.20151619  0.89335527  0.57500661     1.55600
O1339       O  0.22961193  0.81728465  0.50254254    -0.79200
C1340       C  0.17714845  0.83121974  0.61691828     0.96700
C1341       C  0.27708466  0.91084381  0.57180644     0.91600
O1342       O  0.27935595  0.89042018  0.54919911    -0.84500
O1343       O  0.16378281  0.69569148  0.70325878    -0.84000
C1344       C  0.12176197  0.84341204  0.69304356     0.95400
O1345       O  0.15538649  0.83063398  0.68685679    -0.73100
O1346       O  0.19768449  0.78777134  0.71796965    -0.76700
Al1347     Al  0.17644313  0.77947192  0.68175515     1.49000
C1348       C  0.19008751  0.77820916  0.74336419     0.90700
O1349       O  0.09306004  0.75877782  0.74177533    -0.82900
O1350       O  0.07630380  0.72976640  0.66009673    -0.76400
Al1351     Al  0.12923486  0.72921987  0.72148374     1.90100
O1352       O  0.05295193  0.76896751  0.70600720    -0.75500
O1353       O  0.11436779  0.80680003  0.63997260    -0.75400
O1354       O  0.09267755  0.82375314  0.69354680    -0.81000
O1355       O  0.16458447  0.77428823  0.64324401    -0.79200
O1356       O  0.13166394  0.76222210  0.69315262    -1.15400
O1357       O  0.20060900  0.73014813  0.67546786    -0.74600
C1358       C  0.18989933  0.69787860  0.68439724     0.96200
C1359       C  0.06110703  0.77039617  0.73247115     0.92600
Al1360     Al  0.08821461  0.77967311  0.67552825     1.55600
O1361       O  0.16584562  0.75261928  0.74783952    -0.79200
C1362       C  0.14973719  0.80362936  0.63336153     0.96700
C1363       C  0.07087335  0.70433297  0.68001598     0.91600
O1364       O  0.09180362  0.70218904  0.70234459    -0.84500
O1365       O  0.45246616  0.90455251  0.54546553    -0.84000
C1366       C  0.09938915  0.86604867  0.55794616     0.95400
O1367       O  0.08615925  0.89967059  0.56403771    -0.73100
O1368       O  0.03957169  0.94211115  0.53483029    -0.76700
Al1369     Al  0.03408662  0.91848898  0.57025003     1.49000
C1370       C  0.03299417  0.93371620  0.50903712     0.90700
O1371       O  0.01897906  0.83264992  0.50916317    -0.82900
O1372       O  0.48665923  0.81717559  0.59049209    -0.76400
Al1373     Al  0.48754924  0.86941992  0.52865209     1.90100
O1374       O  0.02787308  0.79363727  0.54553957    -0.75500
O1375       O  0.06410991  0.85654825  0.61138801    -0.75400
O1376       O  0.08054741  0.83633300  0.55844048    -0.81000
O1377       O  0.03070410  0.90591738  0.60859017    -0.79200
O1378       O  0.01879168  0.87312306  0.55811303    -1.15400
O1379       O  0.48418234  0.93933525  0.57707423    -0.74600
C1380       C  0.45307645  0.92951248  0.56557981     0.96200
C1381       C  0.03038161  0.80078334  0.51893515     0.92600
Al1382     Al  0.03686376  0.83023456  0.57589642     1.55600
O1383       O  0.01142582  0.90623408  0.50307594    -0.79200
C1384       C  0.06076878  0.89193152  0.61779541     0.96700
C1385       C  0.46157447  0.81157210  0.57010715     0.91600
O1386       O  0.46034860  0.83181163  0.54742361    -0.84500
O1387       O  0.07791696  0.52998032  0.70467519    -0.84000
C1388       C  0.11451304  0.88253123  0.69289101     0.95400
O1389       O  0.08102292  0.89604804  0.68689619    -0.73100
O1390       O  0.03937052  0.94428639  0.71588583    -0.76700
Al1391     Al  0.06303956  0.94843264  0.68025040     1.49000
C1392       C  0.04857477  0.95054434  0.74158693     0.90700
O1393       O  0.15016181  0.96333702  0.74090419    -0.82900
O1394       O  0.16497064  0.99381268  0.65909233    -0.76400
Al1395     Al  0.11318449  0.99473572  0.72130707     1.90100
O1396       O  0.18840681  0.95317287  0.70435622    -0.75500
O1397       O  0.12437371  0.91651395  0.63934236    -0.75400
O1398       O  0.14431665  0.90121874  0.69265936    -0.81000
O1399       O  0.07537559  0.95055985  0.64177531    -0.79200
O1400       O  0.10872767  0.96324033  0.69209465    -1.15400
O1401       O  0.04303509  0.99865700  0.67291622    -0.74600
C1402       C  0.05291628  0.52965865  0.68458760     0.96200
C1403       C  0.18180379  0.95145663  0.73107421     0.92600
Al1404     Al  0.15116074  0.94417710  0.67442069     1.55600
O1405       O  0.07678601  0.97125495  0.74723517    -0.79200
C1406       C  0.08908959  0.92014863  0.63286566     0.96700
C1407       C  0.17078227  0.51932168  0.67915037     0.91600
O1408       O  0.15054222  0.52130176  0.70183119    -0.84500
O1409       O  0.98725185  0.29667636  0.32481174    -0.84000
C1410       C  0.52992530  0.42600736  0.26316350     0.95400
O1411       O  0.51711379  0.39517473  0.25261158    -0.73100
O1412       O  0.51818646  0.31982061  0.24669535    -0.76700
Al1413     Al  0.98865690  0.35758067  0.27006778     1.49000
C1414       C  0.53559109  0.28838276  0.25280549     0.90700
O1415       O  0.58703941  0.33292898  0.29387262    -0.82900
O1416       O  0.54895677  0.35582483  0.35770328    -0.76400
Al1417     Al  0.53735217  0.31160905  0.30690873     1.90100
O1418       O  0.58163395  0.39216802  0.31095047    -0.75500
O1419       O  0.98003367  0.40427318  0.33263435    -0.75400
O1420       O  0.52893957  0.43283751  0.29057137    -0.81000
O1421       O  0.95798649  0.39478824  0.28762949    -0.79200
O1422       O  0.51888222  0.35805348  0.29907483    -1.15400
O1423       O  0.95627507  0.31989853  0.28650465    -0.74600
C1424       C  0.95688758  0.29962423  0.30951634     0.96200
C1425       C  0.60016571  0.36644130  0.29868133     0.92600
Al1426     Al  0.53280288  0.39406177  0.32215173     1.55600
O1427       O  0.53719895  0.27529838  0.27803403    -0.79200
C1428       C  0.95686268  0.41241880  0.31175544     0.96700
C1429       C  0.56682415  0.32188826  0.35942653     0.91600
O1430       O  0.56561210  0.29854945  0.33872499    -0.84500
O1431       O  0.54526963  0.23299786  0.42472735    -0.84000
C1432       C  0.68052046  0.27515265  0.48422706     0.95400
O1433       O  0.65265242  0.25660878  0.49361182    -0.73100
O1434       O  0.58197602  0.26091246  0.50360031    -0.76700
Al1435     Al  0.61272610  0.23087424  0.47656249     1.49000
C1436       C  0.54890177  0.27361857  0.49921098     0.90700
O1437       O  0.58075597  0.32795011  0.45898833    -0.82900
O1438       O  0.61437937  0.28176217  0.38808055    -0.76400
Al1439     Al  0.56192738  0.28149655  0.44199788     1.90100
O1440       O  0.63571182  0.32686975  0.43378747    -0.75500
O1441       O  0.66608039  0.22591461  0.41691717    -0.75400
O1442       O  0.68401052  0.28153378  0.45726946    -0.81000
O1443       O  0.64658230  0.19855731  0.45737646    -0.79200
O1444       O  0.60805234  0.26227947  0.44741200    -1.15400
O1445       O  0.57253768  0.20063414  0.46131234    -0.74600
C1446       C  0.55043320  0.20188514  0.43917173     0.96200
C1447       C  0.61211527  0.34316554  0.45036304     0.92600
Al1448     Al  0.64664452  0.27719180  0.42530635     1.55600
O1449       O  0.53448494  0.26822057  0.47512907    -0.79200
C1450       C  0.66968171  0.20038773  0.43651705     0.96700
C1451       C  0.58464314  0.30398658  0.38625596     0.91600
O1452       O  0.56434665  0.30738423  0.40785316    -0.84500
O1453       O  0.74943182  0.43876814  0.32587202    -0.84000
C1454       C  0.70705111  0.30252620  0.26636296     0.95400
O1455       O  0.72735557  0.32935225  0.25741532    -0.73100
O1456       O  0.72215028  0.40016787  0.24690750    -0.76700
Al1457     Al  0.75221910  0.37012545  0.27456611     1.49000
C1458       C  0.70940598  0.43338884  0.25088885     0.90700
O1459       O  0.65488926  0.40379206  0.29115349    -0.82900
O1460       O  0.70196957  0.36889121  0.36246687    -0.76400
Al1461     Al  0.70114695  0.42218323  0.30838749     1.90100
O1462       O  0.65534875  0.34944597  0.31707345    -0.75500
O1463       O  0.75441181  0.31548603  0.33346414    -0.75400
O1464       O  0.69867677  0.30006287  0.29308664    -0.81000
O1465       O  0.78449877  0.33691777  0.29477200    -0.79200
O1466       O  0.72019691  0.37545580  0.30327970    -1.15400
O1467       O  0.78192779  0.41093625  0.28965265    -0.74600
C1468       C  0.78057741  0.43339115  0.31161459     0.96200
C1469       C  0.63958592  0.37257739  0.29992686     0.92600
Al1470     Al  0.70437684  0.33694380  0.32520989     1.55600
O1471       O  0.71527814  0.44838967  0.27474067    -0.79200
C1472       C  0.78090923  0.31255879  0.31469801     0.96700
C1473       C  0.68102279  0.39946475  0.36464323     0.91600
O1474       O  0.67581042  0.41900254  0.34291487    -0.84500
O1475       O  0.68457691  0.49777392  0.42713065    -0.84000
C1476       C  0.55796037  0.45256666  0.48779578     0.95400
O1477       O  0.58859348  0.46534891  0.49875713    -0.73100
O1478       O  0.66343287  0.46662533  0.50474712    -0.76700
Al1479     Al  0.62589148  0.49512753  0.48202923     1.49000
C1480       C  0.69298704  0.44780534  0.49702882     0.90700
O1481       O  0.65047314  0.39739677  0.45507206    -0.82900
O1482       O  0.62906751  0.43300412  0.39238148    -0.76400
Al1483     Al  0.66568254  0.44718077  0.44101841     1.90100
O1484       O  0.59113264  0.40120553  0.43994183    -0.75500
O1485       O  0.58007206  0.50311966  0.41851732    -0.75400
O1486       O  0.55154607  0.45401946  0.46034425    -0.81000
O1487       O  0.58816836  0.02484955  0.46370793    -0.79200
O1488       O  0.62742083  0.46467467  0.45401355    -1.15400
O1489       O  0.66277589  0.02806105  0.46596906    -0.74600
C1490       C  0.68256629  0.02809257  0.44284050     0.96200
C1491       C  0.61761174  0.38294628  0.45119753     0.92600
Al1492     Al  0.59082005  0.45050885  0.42921705     1.55600
O1493       O  0.70247968  0.44543650  0.47067087    -0.79200
C1494       C  0.57086403  0.02583901  0.43942744     0.96700
C1495       C  0.66498484  0.41770676  0.39167068     0.91600
O1496       O  0.68942071  0.42175824  0.41255809    -0.84500
O1497       O  0.79842491  0.24519885  0.32153373    -0.84000
C1498       C  0.93005662  0.19792187  0.26775165     0.95400
O1499       O  0.89805548  0.20948780  0.25810966    -0.73100
O1500       O  0.81961941  0.21734987  0.24991875    -0.76700
Al1501     Al  0.86347495  0.24326529  0.27495368     1.49000
C1502       C  0.79050036  0.19570204  0.25698879     0.90700
O1503       O  0.84450253  0.15224114  0.28906533    -0.82900
O1504       O  0.86381000  0.19414605  0.36291060    -0.76400
Al1505     Al  0.82251224  0.19857456  0.30498920     1.90100
O1506       O  0.89259540  0.14961132  0.32028998    -0.75500
O1507       O  0.91688028  0.25313016  0.33535499    -0.75400
O1508       O  0.93765667  0.19827432  0.29505598    -0.81000
O1509       O  0.90387950  0.27178329  0.29008661    -0.79200
O1510       O  0.86368335  0.21627937  0.30719007    -1.15400
O1511       O  0.83004897  0.28091332  0.29057612    -0.74600
C1512       C  0.80516274  0.27797779  0.31039849     0.96200
C1513       C  0.87182559  0.13439992  0.30131071     0.92600
Al1514     Al  0.90070037  0.20044372  0.32813439     1.55600
O1515       O  0.78088096  0.18836049  0.28356826    -0.79200
C1516       C  0.92331277  0.27464390  0.31324923     0.96700
C1517       C  0.83172757  0.17449445  0.36251083     0.91600
O1518       O  0.81320781  0.17088532  0.33916536    -0.84500
O1519       O  0.73406970  0.17720808  0.42516961    -0.84000
C1520       C  0.78011766  0.05156824  0.48719568     0.95400
O1521       O  0.76753657  0.08266036  0.49784687    -0.73100
O1522       O  0.76595812  0.15760629  0.50314795    -0.76700
Al1523     Al  0.73763654  0.12007028  0.48081524     1.49000
C1524       C  0.78381458  0.18741763  0.49537948     0.90700
O1525       O  0.83396163  0.14630600  0.45357727    -0.82900
O1526       O  0.79768200  0.12238203  0.39049951    -0.76400
Al1527     Al  0.78430640  0.15970877  0.43932186     1.90100
O1528       O  0.83283822  0.08673497  0.43854409    -0.75500
O1529       O  0.72939473  0.07113071  0.41835574    -0.75400
O1530       O  0.78049453  0.04550676  0.45971544    -0.81000
O1531       O  0.70804221  0.08209618  0.46313377    -0.79200
O1532       O  0.76781386  0.12120540  0.45268532    -1.15400
O1533       O  0.70429391  0.15711356  0.46453589    -0.74600
C1534       C  0.70417695  0.17602181  0.44096624     0.96200
C1535       C  0.85003614  0.11426135  0.44948491     0.92600
Al1536     Al  0.78249504  0.08433805  0.42822637     1.55600
O1537       O  0.78520950  0.19711777  0.46896691    -0.79200
C1538       C  0.70686951  0.06307897  0.43963179     0.96700
C1539       C  0.81226511  0.15842723  0.38926242     0.91600
O1540       O  0.80844458  0.18294396  0.41017202    -0.84500
O1541       O  0.94132702  0.47929179  0.32131458    -0.84000
C1542       C  0.81077889  0.03166601  0.26803569     0.95400
O1543       O  0.84290465  0.02032930  0.25873779    -0.73100
O1544       O  0.92049533  0.00859838  0.24997567    -0.76700
Al1545     Al  0.87561100  0.48493246  0.27541023     1.49000
C1546       C  0.95066096  0.02902700  0.25703740     0.90700
O1547       O  0.90007298  0.07510342  0.28970733    -0.82900
O1548       O  0.87812236  0.03616690  0.36273904    -0.76400
Al1549     Al  0.91949621  0.02723539  0.30512031     1.90100
O1550       O  0.85109698  0.07979856  0.31983861    -0.75500
O1551       O  0.82311243  0.47870498  0.33664116    -0.75400
O1552       O  0.80341843  0.03229210  0.29534765    -0.81000
O1553       O  0.83396463  0.45881711  0.29125747    -0.79200
O1554       O  0.87733757  0.01200695  0.30763570    -1.15400
O1555       O  0.90693028  0.44553938  0.29056092    -0.74600
C1556       C  0.93266563  0.44708186  0.30988644     0.96200
C1557       C  0.87313886  0.09402628  0.30152938     0.92600
Al1558     Al  0.84103827  0.03006570  0.32836859     1.55600
O1559       O  0.96136246  0.03527851  0.28362264    -0.79200
C1560       C  0.81496016  0.45736413  0.31471229     0.96700
C1561       C  0.91118015  0.05388433  0.36196931     0.91600
O1562       O  0.93063096  0.05436011  0.33902918    -0.84500
O1563       O  0.00370339  0.04105261  0.42936579    -0.84000
C1564       C  0.95098348  0.17195484  0.48178260     0.95400
O1565       O  0.96200061  0.13974955  0.49115738    -0.73100
O1566       O  0.97297623  0.06198286  0.50034913    -0.76700
Al1567     Al  0.49758979  0.10696865  0.47505701     1.49000
C1568       C  0.95213509  0.03208602  0.49310350     0.90700
O1569       O  0.90830828  0.08405914  0.46004944    -0.82900
O1570       O  0.94809479  0.10507708  0.38717900    -0.76400
Al1571     Al  0.95569261  0.06365364  0.44507746     1.90100
O1572       O  0.90446103  0.13290067  0.42963910    -0.75500
O1573       O  0.50578142  0.15924649  0.41378924    -0.75400
O1574       O  0.95166449  0.17974157  0.45454460    -0.81000
O1575       O  0.52437345  0.14865074  0.45954990    -0.79200
O1576       O  0.97144254  0.10554620  0.44239537    -1.15400
O1577       O  0.53704461  0.07547145  0.46039167    -0.74600
C1578       C  0.53580075  0.04971734  0.44104026     0.96200
C1579       C  0.89006825  0.11149252  0.44828224     0.92600
Al1580     Al  0.95418599  0.14213035  0.42152042     1.55600
O1581       O  0.94600824  0.02171146  0.46640162    -0.79200
C1582       C  0.52653786  0.16747570  0.43599792     0.96700
C1583       C  0.92981027  0.07231361  0.38796287     0.91600
O1584       O  0.92884977  0.05295429  0.41094871    -0.84500
O1585       O  0.91197701  0.27985372  0.04702965    -0.84000
C1586       C  0.87268773  0.13062568  0.05617627     0.95400
O1587       O  0.90625941  0.14317633  0.06219367    -0.73100
O1588       O  0.94506942  0.18702119  0.03004698    -0.76700
Al1589     Al  0.92643432  0.19469823  0.06680734     1.49000
C1590       C  0.93669283  0.19748053  0.00496950     0.90700
O1591       O  0.84109324  0.21824721  0.00722887    -0.82900
O1592       O  0.82593451  0.24441355  0.09012375    -0.76400
Al1593     Al  0.87748217  0.24687041  0.02841497     1.90100
O1594       O  0.80226344  0.20589058  0.04301461    -0.75500
O1595       O  0.86619427  0.16751542  0.10948730    -0.75400
O1596       O  0.84362598  0.15077264  0.05547569    -0.81000
O1597       O  0.91672541  0.19913238  0.10575930    -0.79200
O1598       O  0.88114557  0.21262336  0.05622829    -1.15400
O1599       O  0.95035487  0.24383677  0.07289764    -0.74600
C1600       C  0.93900977  0.27659335  0.06513039     0.96200
C1601       C  0.80940012  0.20624155  0.01617012     0.92600
Al1602     Al  0.83857049  0.19475179  0.07389002     1.55600
O1603       O  0.91362620  0.22464106  0.00118408    -0.79200
C1604       C  0.90170701  0.17040922  0.11620158     0.96700
C1605       C  0.81993612  0.27053970  0.07075861     0.91600
O1606       O  0.84026373  0.27313340  0.04832273    -0.84500
O1607       O  0.53797788  0.15735792  0.20443449    -0.84000
C1608       C  0.89034573  0.11649759  0.19478918     0.95400
O1609       O  0.90256752  0.15009665  0.18843725    -0.73100
O1610       O  0.94635945  0.19120839  0.21963594    -0.76700
Al1611     Al  0.95378510  0.17051904  0.18322514     1.49000
C1612       C  0.95577482  0.18284086  0.24495334     0.90700
O1613       O  0.97812395  0.08657049  0.24357773    -0.82900
O1614       O  0.50435092  0.07073835  0.16119320    -0.76400
Al1615     Al  0.50574248  0.12287584  0.22268046     1.90100
O1616       O  0.96641277  0.04629514  0.20839039    -0.75500
O1617       O  0.92639155  0.10857272  0.14155801    -0.75400
O1618       O  0.91062877  0.08740822  0.19563239    -0.81000
O1619       O  0.95771016  0.15934298  0.14443427    -0.79200
O1620       O  0.97181438  0.12555851  0.19458447    -1.15400
O1621       O  0.00290422  0.19405928  0.17654872    -0.74600
C1622       C  0.53532166  0.18310334  0.18537797     0.96200
C1623       C  0.96737787  0.05413765  0.23515042     0.92600
Al1624     Al  0.95454145  0.08232962  0.17729453     1.55600
O1625       O  0.98214612  0.15901647  0.24936288    -0.79200
C1626       C  0.92885887  0.14391314  0.13441599     0.96700
C1627       C  0.53075670  0.06527240  0.18051995     0.91600
O1628       O  0.53313372  0.08563922  0.20310609    -0.84500
O1629       O  0.82424397  0.44391440  0.04756369    -0.84000
C1630       C  0.86527343  0.09139478  0.05634506     0.95400
O1631       O  0.83206381  0.07891673  0.06361955    -0.73100
O1632       O  0.78894298  0.03381997  0.03456553    -0.76700
Al1633     Al  0.81227703  0.02730324  0.06994497     1.49000
C1634       C  0.79663627  0.02546256  0.00894467     0.90700
O1635       O  0.89455031  0.00420273  0.00720131    -0.82900
O1636       O  0.91263506  0.47807365  0.08946797    -0.76400
Al1637     Al  0.85859027  0.47633731  0.02891222     1.90100
O1638       O  0.93564574  0.01559400  0.04178882    -0.75500
O1639       O  0.87536443  0.05666670  0.10939819    -0.75400
O1640       O  0.89441914  0.07130432  0.05474661    -0.81000
O1641       O  0.82605613  0.02343679  0.10818826    -0.79200
O1642       O  0.85676729  0.00993762  0.05715027    -1.15400
O1643       O  0.78943316  0.47816429  0.07740391    -0.74600
C1644       C  0.79919699  0.44607585  0.06724212     0.96200
C1645       C  0.92720845  0.01497456  0.01514039     0.92600
Al1646     Al  0.90046889  0.02772436  0.07336924     1.55600
O1647       O  0.82157217  0.00050920  0.00339268    -0.79200
C1648       C  0.84045863  0.05330954  0.11727527     0.96700
C1649       C  0.91753232  0.45151767  0.07011494     0.91600
O1650       O  0.89642588  0.44880232  0.04789880    -0.84500
O1651       O  0.70237704  0.06887098  0.20194138    -0.84000
C1652       C  0.85121190  0.10891311  0.19482027     0.95400
O1653       O  0.83887620  0.07544977  0.18820781    -0.73100
O1654       O  0.79511765  0.03603528  0.21966908    -0.76700
Al1655     Al  0.78760297  0.05513794  0.18294209     1.49000
C1656       C  0.78474735  0.04482768  0.24469747     0.90700
O1657       O  0.76166067  0.13916574  0.24265984    -0.82900
O1658       O  0.73826299  0.15658058  0.16018450    -0.76400
Al1659     Al  0.73443655  0.10324637  0.22100215     1.90100
O1660       O  0.77557916  0.17927012  0.20807031    -0.75500
O1661       O  0.81557510  0.11638264  0.14130202    -0.75400
O1662       O  0.83094466  0.13791393  0.19589840    -0.81000
O1663       O  0.78370642  0.06583557  0.14409918    -0.79200
O1664       O  0.76927892  0.10032731  0.19370986    -1.15400
O1665       O  0.73865748  0.03067685  0.17625174    -0.74600
C1666       C  0.70581506  0.04185815  0.18390492     0.96200
C1667       C  0.77355022  0.17126147  0.23471285     0.92600
Al1668     Al  0.78747850  0.14343587  0.17687914     1.55600
O1669       O  0.75697658  0.06724426  0.24828565    -0.79200
C1670       C  0.81286758  0.08086681  0.13434556     0.96700
C1671       C  0.71164567  0.16204849  0.17924154     0.91600
O1672       O  0.70813240  0.14064802  0.20105051    -0.84500
O1673       O  0.78618035  0.31855890  0.04718220    -0.84000
C1674       C  0.63849258  0.35891636  0.05705965     0.95400
O1675       O  0.65154187  0.32527447  0.06306662    -0.73100
O1676       O  0.69613436  0.28364770  0.03241408    -0.76700
Al1677     Al  0.70290956  0.30504359  0.06868790     1.49000
C1678       C  0.70497675  0.29205489  0.00705997     0.90700
O1679       O  0.72355849  0.39008954  0.00862924    -0.82900
O1680       O  0.75105944  0.40546926  0.09128375    -0.76400
Al1681     Al  0.75276589  0.35342524  0.02926651     1.90100
O1682       O  0.71254104  0.42963326  0.04444874    -0.75500
O1683       O  0.67380053  0.36661549  0.11024893    -0.75400
O1684       O  0.65795175  0.38819887  0.05638279    -0.81000
O1685       O  0.70675793  0.31661872  0.10734685    -0.79200
O1686       O  0.71963680  0.35023982  0.05747719    -1.15400
O1687       O  0.75233374  0.28184348  0.07549854    -0.74600
C1688       C  0.78432058  0.29253814  0.06615773     0.96200
C1689       C  0.71200051  0.42216135  0.01766927     0.92600
Al1690     Al  0.70151327  0.39335675  0.07500718     1.55600
O1691       O  0.72960825  0.31728910  0.00254321    -0.79200
C1692       C  0.67714360  0.33122200  0.11691933     0.96700
C1693       C  0.77708188  0.41084561  0.07180689     0.91600
O1694       O  0.77935355  0.39042115  0.04919980    -0.84500
O1695       O  0.66378417  0.19569317  0.20326031    -0.84000
C1696       C  0.62175840  0.34341116  0.19304842     0.95400
O1697       O  0.65538248  0.33063319  0.18686031    -0.73100
O1698       O  0.69768641  0.28776823  0.21796873    -0.76700
Al1699     Al  0.67643991  0.27947176  0.18175524     1.49000
C1700       C  0.69008873  0.27820806  0.24336379     0.90700
O1701       O  0.59305810  0.25877578  0.24177779    -0.82900
O1702       O  0.57630285  0.22976732  0.16009890    -0.76400
Al1703     Al  0.62923450  0.22921969  0.22148546     1.90100
O1704       O  0.55294917  0.26896414  0.20601024    -0.75500
O1705       O  0.61436312  0.30680431  0.13997659    -0.75400
O1706       O  0.59267378  0.32375196  0.19355284    -0.81000
O1707       O  0.66457795  0.27429014  0.14324442    -0.79200
O1708       O  0.63166172  0.26222194  0.19315456    -1.15400
O1709       O  0.70060473  0.23014870  0.17546433    -0.74600
C1710       C  0.68989727  0.19787946  0.18439621     0.96200
C1711       C  0.56110478  0.27039367  0.23247405     0.92600
Al1712     Al  0.58821147  0.27967329  0.17553186     1.55600
O1713       O  0.66584423  0.25262139  0.24784027    -0.79200
C1714       C  0.64973172  0.30363238  0.13336330     0.96700
C1715       C  0.57087368  0.20433259  0.18001782     0.91600
O1716       O  0.59180485  0.20218737  0.20234568    -0.84500
O1717       O  0.95246845  0.40455409  0.04546542    -0.84000
C1718       C  0.59938877  0.36604561  0.05794548     0.95400
O1719       O  0.58615863  0.39966652  0.06403882    -0.73100
O1720       O  0.53957286  0.44211136  0.03483340    -0.76700
Al1721     Al  0.53408681  0.41848496  0.07025208     1.49000
C1722       C  0.53299628  0.43371751  0.00903970     0.90700
O1723       O  0.51898028  0.33265044  0.00916160    -0.82900
O1724       O  0.98665899  0.31717627  0.09049075    -0.76400
Al1725     Al  0.98755173  0.36942210  0.02865146     1.90100
O1726       O  0.52787164  0.29363516  0.04553672    -0.75500
O1727       O  0.56411028  0.35654061  0.11138684    -0.75400
O1728       O  0.58054752  0.33632912  0.05843853    -0.81000
O1729       O  0.53070267  0.40590842  0.10859120    -0.79200
O1730       O  0.51879225  0.37312025  0.05811265    -1.15400
O1731       O  0.98418391  0.43933504  0.07707578    -0.74600
C1732       C  0.95307815  0.42951296  0.06558067     0.96200
C1733       C  0.53038093  0.30078303  0.01893246     0.92600
Al1734     Al  0.53686378  0.33023006  0.07589433     1.55600
O1735       O  0.51142911  0.40623501  0.00307739    -0.79200
C1736       C  0.56076784  0.39192292  0.11779596     0.96700
C1737       C  0.96157462  0.31157316  0.07010526     0.91600
O1738       O  0.96035002  0.33181252  0.04742165    -0.84500
O1739       O  0.57791635  0.02998272  0.20467687    -0.84000
C1740       C  0.61450866  0.38253016  0.19289368     0.95400
O1741       O  0.58101818  0.39604689  0.18690016    -0.73100
O1742       O  0.53936229  0.44429309  0.21588459    -0.76700
Al1743     Al  0.56303636  0.44843117  0.18024942     1.49000
C1744       C  0.54857185  0.45054480  0.24158565     0.90700
O1745       O  0.65016257  0.46333441  0.24090208    -0.82900
O1746       O  0.66496898  0.49381000  0.15909157    -0.76400
Al1747     Al  0.61318294  0.49473185  0.22130596     1.90100
O1748       O  0.68840572  0.45316867  0.20435358    -0.75500
O1749       O  0.62437216  0.41650839  0.13934204    -0.75400
O1750       O  0.64431328  0.40121668  0.19265777    -0.81000
O1751       O  0.57537300  0.45055184  0.14177470    -0.79200
O1752       O  0.60872539  0.46323773  0.19209321    -1.15400
O1753       O  0.54303594  0.49865553  0.17291074    -0.74600
C1754       C  0.55291523  0.02966119  0.18459024     0.96200
C1755       C  0.68180391  0.45145340  0.23107180     0.92600
Al1756     Al  0.65115817  0.44417409  0.17441924     1.55600
O1757       O  0.57678830  0.47124772  0.24723356    -0.79200
C1758       C  0.58908757  0.42014062  0.13286637     0.96700
C1759       C  0.67077949  0.01932509  0.17915139     0.91600
O1760       O  0.65054070  0.02130372  0.20183299    -0.84500
O1761       O  0.98725216  0.29667695  0.82481243    -0.84000
C1762       C  0.52992639  0.42600546  0.76316333     0.95400
O1763       O  0.51711491  0.39517276  0.75261119    -0.73100
O1764       O  0.51818658  0.31981874  0.74669507    -0.76700
Al1765     Al  0.98865645  0.35758126  0.77006846     1.49000
C1766       C  0.53559147  0.28838093  0.75280515     0.90700
O1767       O  0.58704002  0.33292747  0.79387237    -0.82900
O1768       O  0.54895625  0.35582304  0.85770283    -0.76400
Al1769     Al  0.53735270  0.31160726  0.80690822     1.90100
O1770       O  0.58163401  0.39216617  0.81095079    -0.75500
O1771       O  0.98003383  0.40427413  0.83263486    -0.75400
O1772       O  0.52894018  0.43283559  0.79057108    -0.81000
O1773       O  0.95798605  0.39478882  0.78763023    -0.79200
O1774       O  0.51888248  0.35805173  0.79907447    -1.15400
O1775       O  0.95627488  0.31989899  0.78650548    -0.74600
C1776       C  0.95688809  0.29962435  0.80951768     0.96200
C1777       C  0.60016609  0.36643972  0.79868157     0.92600
Al1778     Al  0.53280283  0.39406002  0.82215145     1.55600
O1779       O  0.53719960  0.27529652  0.77803357    -0.79200
C1780       C  0.95686252  0.41241957  0.81175608     0.96700
C1781       C  0.56682429  0.32188692  0.85942591     0.91600
O1782       O  0.56561273  0.29854801  0.83872435    -0.84500
O1783       O  0.54526962  0.23299795  0.92472634    -0.84000
C1784       C  0.68052006  0.27515260  0.98422679     0.95400
O1785       O  0.65265178  0.25660934  0.99361140    -0.73100
O1786       O  0.58197526  0.26091219  0.00359934    -0.76700
Al1787     Al  0.61272578  0.23087433  0.97656186     1.49000
C1788       C  0.54890111  0.27361820  0.99921015     0.90700
O1789       O  0.58075559  0.32794981  0.95898724    -0.82900
O1790       O  0.61437969  0.28176142  0.88807992    -0.76400
Al1791     Al  0.56192721  0.28149633  0.94199694     1.90100
O1792       O  0.63571170  0.32686951  0.93378666    -0.75500
O1793       O  0.66608047  0.22591432  0.91691682    -0.75400
O1794       O  0.68401043  0.28153364  0.95726904    -0.81000
O1795       O  0.64658255  0.19855746  0.95737629    -0.79200
O1796       O  0.60805217  0.26227933  0.94741129    -1.15400
O1797       O  0.57253764  0.20063414  0.96131133    -0.74600
C1798       C  0.55043347  0.20188503  0.93917105     0.96200
C1799       C  0.61211497  0.34316514  0.95036230     0.92600
Al1800     Al  0.64664455  0.27719149  0.92530578     1.55600
O1801       O  0.53448427  0.26822084  0.97512803    -0.79200
C1802       C  0.66968195  0.20038770  0.93651703     0.96700
C1803       C  0.58464343  0.30398555  0.88625520     0.91600
O1804       O  0.56434679  0.30738351  0.90785229    -0.84500
O1805       O  0.74943108  0.43876827  0.82587347    -0.84000
C1806       C  0.70705126  0.30252520  0.76636429     0.95400
O1807       O  0.72735720  0.32935111  0.75741688    -0.73100
O1808       O  0.72215148  0.40016698  0.74690869    -0.76700
Al1809     Al  0.75222001  0.37012479  0.77456799     1.49000
C1810       C  0.70940685  0.43338808  0.75088976     0.90700
O1811       O  0.65488957  0.40379065  0.79115410    -0.82900
O1812       O  0.70197010  0.36889061  0.86246811    -0.76400
Al1813     Al  0.70114670  0.42218247  0.80838853     1.90100
O1814       O  0.65534867  0.34944551  0.81707509    -0.75500
O1815       O  0.75441144  0.31548436  0.83346544    -0.75400
O1816       O  0.69867615  0.30006243  0.79308749    -0.81000
O1817       O  0.78449974  0.33691773  0.79477451    -0.79200
O1818       O  0.72019716  0.37545509  0.80328113    -1.15400
O1819       O  0.78192799  0.41093606  0.78965474    -0.74600
C1820       C  0.78057695  0.43339149  0.81161625     0.96200
C1821       C  0.63958620  0.37257619  0.79992770     0.92600
Al1822     Al  0.70437673  0.33694300  0.82521123     1.55600
O1823       O  0.71527822  0.44838884  0.77474163    -0.79200
C1824       C  0.78090933  0.31255770  0.81470001     0.96700
C1825       C  0.68102305  0.39946394  0.86464433     0.91600
O1826       O  0.67580989  0.41900126  0.84291575    -0.84500
O1827       O  0.68457780  0.49777339  0.92713188    -0.84000
C1828       C  0.55796091  0.45256592  0.98779660     0.95400
O1829       O  0.58859411  0.46534813  0.99875801    -0.73100
O1830       O  0.66343346  0.46662518  0.00474785    -0.76700
Al1831     Al  0.62589176  0.49512711  0.98203005     1.49000
C1832       C  0.69298721  0.44780460  0.99702949     0.90700
O1833       O  0.65047311  0.39739602  0.95507216    -0.82900
O1834       O  0.62906791  0.43300367  0.89238229    -0.76400
Al1835     Al  0.66568284  0.44718026  0.94101913     1.90100
O1836       O  0.59113250  0.40120540  0.93994231    -0.75500
O1837       O  0.58007288  0.50311929  0.91851801    -0.75400
O1838       O  0.55154647  0.45401916  0.96034516    -0.81000
O1839       O  0.58816797  0.02484980  0.96370715    -0.79200
O1840       O  0.62742120  0.46467418  0.95401438    -1.15400
O1841       O  0.66277573  0.02806182  0.96596837    -0.74600
C1842       C  0.68256654  0.02809335  0.94284012     0.96200
C1843       C  0.61761177  0.38294577  0.95119749     0.92600
Al1844     Al  0.59082040  0.45050857  0.92921779     1.55600
O1845       O  0.70247964  0.44543530  0.97067153    -0.79200
C1846       C  0.57086346  0.02583917  0.93942680     0.96700
C1847       C  0.66498521  0.41770633  0.89167158     0.91600
O1848       O  0.68942122  0.42175799  0.91255895    -0.84500
O1849       O  0.79842557  0.24519761  0.82153505    -0.84000
C1850       C  0.93005771  0.19792155  0.76775259     0.95400
O1851       O  0.89805617  0.20948809  0.75811074    -0.73100
O1852       O  0.81961991  0.21734976  0.74991963    -0.76700
Al1853     Al  0.86347552  0.24326516  0.77495492     1.49000
C1854       C  0.79050084  0.19570162  0.75698973     0.90700
O1855       O  0.84450442  0.15224123  0.78906535    -0.82900
O1856       O  0.86381127  0.19414536  0.86291121    -0.76400
Al1857     Al  0.82251355  0.19857398  0.80498980     1.90100
O1858       O  0.89259665  0.14961084  0.82029057    -0.75500
O1859       O  0.91688157  0.25312957  0.83535616    -0.75400
O1860       O  0.93765792  0.19827402  0.79505659    -0.81000
O1861       O  0.90387987  0.27178333  0.79008809    -0.79200
O1862       O  0.86368443  0.21627901  0.80719120    -1.15400
O1863       O  0.83004918  0.28091279  0.79057769    -0.74600
C1864       C  0.80516320  0.27797698  0.81039990     0.96200
C1865       C  0.87182725  0.13439977  0.80131090     0.92600
Al1866     Al  0.90070168  0.20044321  0.82813521     1.55600
O1867       O  0.78088208  0.18835948  0.78356916    -0.79200
C1868       C  0.92331322  0.27464397  0.81324999     0.96700
C1869       C  0.83172894  0.17449357  0.86251113     0.91600
O1870       O  0.81320964  0.17088402  0.83916552    -0.84500
O1871       O  0.73407039  0.17720912  0.92516998    -0.84000
C1872       C  0.78011874  0.05156895  0.98719576     0.95400
O1873       O  0.76753833  0.08266126  0.99784675    -0.73100
O1874       O  0.76595874  0.15760710  0.00314769    -0.76700
Al1875     Al  0.73763754  0.12007066  0.98081517     1.49000
C1876       C  0.78381576  0.18741803  0.99537943     0.90700
O1877       O  0.83396255  0.14630589  0.95357636    -0.82900
O1878       O  0.79768244  0.12238187  0.89049948    -0.76400
Al1879     Al  0.78430717  0.15970923  0.93932167     1.90100
O1880       O  0.83283842  0.08673466  0.93854361    -0.75500
O1881       O  0.72939494  0.07113160  0.91835564    -0.75400
O1882       O  0.78049478  0.04550700  0.95971539    -0.81000
O1883       O  0.70804341  0.08209608  0.96313404    -0.79200
O1884       O  0.76781462  0.12120581  0.95268511    -1.15400
O1885       O  0.70429431  0.15711343  0.96453578    -0.74600
C1886       C  0.70417749  0.17602221  0.94096622     0.96200
C1887       C  0.85003671  0.11426110  0.94948404     0.92600
Al1888     Al  0.78249534  0.08433823  0.92822620     1.55600
O1889       O  0.78521156  0.19711806  0.96896678    -0.79200
C1890       C  0.70687013  0.06307942  0.93963171     0.96700
C1891       C  0.81226589  0.15842689  0.88926241     0.91600
O1892       O  0.80844517  0.18294395  0.91017175    -0.84500
O1893       O  0.94132664  0.47929269  0.82131485    -0.84000
C1894       C  0.81077926  0.03166706  0.76803547     0.95400
O1895       O  0.84290508  0.02033050  0.75873728    -0.73100
O1896       O  0.92049557  0.00859870  0.74997464    -0.76700
Al1897     Al  0.87561014  0.48493356  0.77541144     1.49000
C1898       C  0.95066132  0.02902722  0.75703647     0.90700
O1899       O  0.90007388  0.07510320  0.78970679    -0.82900
O1900       O  0.87812368  0.03616604  0.86273844    -0.76400
Al1901     Al  0.91949697  0.02723492  0.80511941     1.90100
O1902       O  0.85109849  0.07979846  0.81983864    -0.75500
O1903       O  0.82311144  0.47870614  0.83664255    -0.75400
O1904       O  0.80341918  0.03229287  0.79534741    -0.81000
O1905       O  0.83396335  0.45881865  0.79125869    -0.79200
O1906       O  0.87733827  0.01200678  0.80763498    -1.15400
O1907       O  0.90692912  0.44553979  0.79056201    -0.74600
C1908       C  0.93266506  0.44708256  0.80988711     0.96200
C1909       C  0.87314018  0.09402619  0.80152931     0.92600
Al1910     Al  0.84103930  0.03006562  0.82836816     1.55600
O1911       O  0.96136308  0.03527819  0.78362166    -0.79200
C1912       C  0.81495912  0.45736541  0.81471371     0.96700
C1913       C  0.91118174  0.05388362  0.86196848     0.91600
O1914       O  0.93063215  0.05435931  0.83902844    -0.84500
O1915       O  0.00370374  0.04105178  0.92936574    -0.84000
C1916       C  0.95098354  0.17195402  0.98178312     0.95400
O1917       O  0.96200096  0.13974907  0.99115753    -0.73100
O1918       O  0.97297684  0.06198253  0.00034874    -0.76700
Al1919     Al  0.49758996  0.10696920  0.97505604     1.49000
C1920       C  0.95213549  0.03208578  0.99310319     0.90700
O1921       O  0.90830857  0.08405860  0.96004870    -0.82900
O1922       O  0.94809641  0.10507641  0.88717846    -0.76400
Al1923     Al  0.95569296  0.06365305  0.94507706     1.90100
O1924       O  0.90446162  0.13289965  0.92963795    -0.75500
O1925       O  0.50578153  0.15924701  0.91378836    -0.75400
O1926       O  0.95166403  0.17974089  0.95454478    -0.81000
O1927       O  0.52437322  0.14865123  0.95954908    -0.79200
O1928       O  0.97144305  0.10554569  0.94239521    -1.15400
O1929       O  0.53704480  0.07547245  0.96039043    -0.74600
C1930       C  0.53580020  0.04971765  0.94103949     0.96200
C1931       C  0.89006869  0.11149178  0.94828123     0.92600
Al1932     Al  0.95418661  0.14212978  0.92152018     1.55600
O1933       O  0.94600850  0.02171110  0.96640141    -0.79200
C1934       C  0.52653773  0.16747616  0.93599668     0.96700
C1935       C  0.92981158  0.07231269  0.88796233     0.91600
O1936       O  0.92885057  0.05295376  0.91094804    -0.84500
O1937       O  0.91197622  0.27985379  0.54702876    -0.84000
C1938       C  0.87268709  0.13062591  0.55617540     0.95400
O1939       O  0.90625897  0.14317640  0.56219245    -0.73100
O1940       O  0.94506898  0.18702180  0.53004609    -0.76700
Al1941     Al  0.92643416  0.19469847  0.56680617     1.49000
C1942       C  0.93669265  0.19748095  0.50496891     0.90700
O1943       O  0.84109240  0.21824682  0.50722813    -0.82900
O1944       O  0.82593479  0.24441438  0.59012310    -0.76400
Al1945     Al  0.87748145  0.24687044  0.52841398     1.90100
O1946       O  0.80226305  0.20589082  0.54301436    -0.75500
O1947       O  0.86619508  0.16751596  0.60948667    -0.75400
O1948       O  0.84362542  0.15077299  0.55547541    -0.81000
O1949       O  0.91672605  0.19913282  0.60575803    -0.79200
O1950       O  0.88114528  0.21262359  0.55622737    -1.15400
O1951       O  0.95035452  0.24383675  0.57289640    -0.74600
C1952       C  0.93900877  0.27659344  0.56512946     0.96200
C1953       C  0.80939929  0.20624127  0.51616987     0.92600
Al1954     Al  0.83857053  0.19475227  0.57388958     1.55600
O1955       O  0.91362552  0.22464137  0.50118313    -0.79200
C1956       C  0.90170812  0.17040981  0.61620050     0.96700
C1957       C  0.81993588  0.27054014  0.57075791     0.91600
O1958       O  0.84026297  0.27313342  0.54832158    -0.84500
O1959       O  0.53797811  0.15735867  0.70443284    -0.84000
C1960       C  0.89034572  0.11649705  0.69478759     0.95400
O1961       O  0.90256721  0.15009584  0.68843599    -0.73100
O1962       O  0.94635691  0.19120566  0.71963646    -0.76700
Al1963     Al  0.95378435  0.17051913  0.68322527     1.49000
C1964       C  0.95577460  0.18284038  0.74495339     0.90700
O1965       O  0.97812375  0.08657114  0.74357713    -0.82900
O1966       O  0.50434942  0.07073716  0.66119316    -0.76400
Al1967     Al  0.50574280  0.12287675  0.72267943     1.90100
O1968       O  0.96641289  0.04629568  0.70838954    -0.75500
O1969       O  0.92639395  0.10857342  0.64155634    -0.75400
O1970       O  0.91062903  0.08740737  0.69562987    -0.81000
O1971       O  0.95771068  0.15934495  0.64443420    -0.79200
O1972       O  0.97181452  0.12555856  0.69458380    -1.15400
O1973       O  0.00290316  0.19406095  0.67655053    -0.74600
C1974       C  0.53532214  0.18310375  0.68537606     0.96200
C1975       C  0.96737783  0.05413817  0.73514956     0.92600
Al1976     Al  0.95454246  0.08232976  0.67729316     1.55600
O1977       O  0.98214833  0.15901781  0.74936250    -0.79200
C1978       C  0.92886018  0.14391415  0.63441511     0.96700
C1979       C  0.53075576  0.06527184  0.68051954     0.91600
O1980       O  0.53313368  0.08563968  0.70310517    -0.84500
O1981       O  0.82424413  0.44391496  0.54756297    -0.84000
C1982       C  0.86527239  0.09139493  0.55634402     0.95400
O1983       O  0.83206271  0.07891696  0.56361858    -0.73100
O1984       O  0.78894118  0.03381868  0.53456547    -0.76700
Al1985     Al  0.81227599  0.02730336  0.56994493     1.49000
C1986       C  0.79663514  0.02546199  0.50894473     0.90700
O1987       O  0.89455010  0.00420191  0.50720145    -0.82900
O1988       O  0.91263389  0.47807315  0.58946745    -0.76400
Al1989     Al  0.85859001  0.47633780  0.52891133     1.90100
O1990       O  0.93564508  0.01559389  0.54178902    -0.75500
O1991       O  0.87536357  0.05666808  0.60939755    -0.75400
O1992       O  0.89441804  0.07130437  0.55474561    -0.81000
O1993       O  0.82605537  0.02343803  0.60818819    -0.79200
O1994       O  0.85676630  0.00993771  0.55715026    -1.15400
O1995       O  0.78943331  0.47816510  0.57740310    -0.74600
C1996       C  0.79919715  0.44607672  0.56724155     0.96200
C1997       C  0.92720800  0.01497424  0.51514055     0.92600
Al1998     Al  0.90046790  0.02772487  0.57336897     1.55600
O1999       O  0.82157197  0.00050941  0.50339263    -0.79200
C2000       C  0.84045804  0.05331096  0.61727491     0.96700
C2001       C  0.91753141  0.45151732  0.57011412     0.91600
O2002       O  0.89642577  0.44880283  0.54789765    -0.84500
O2003       O  0.70237680  0.06887109  0.70194128    -0.84000
C2004       C  0.85121212  0.10891219  0.69482025     0.95400
O2005       O  0.83887587  0.07544959  0.68820751    -0.73100
O2006       O  0.79511703  0.03603550  0.71966896    -0.76700
Al2007     Al  0.78760253  0.05513837  0.68294193     1.49000
C2008       C  0.78474732  0.04482839  0.74469734     0.90700
O2009       O  0.76165933  0.13916644  0.74266016    -0.82900
O2010       O  0.73826441  0.15658169  0.66018461    -0.76400
Al2011     Al  0.73443602  0.10324684  0.72100203     1.90100
O2012       O  0.77557956  0.17927060  0.70807104    -0.75500
O2013       O  0.81557560  0.11638354  0.64130268    -0.75400
O2014       O  0.83094483  0.13791341  0.69589987    -0.81000
O2015       O  0.78370601  0.06583681  0.64409903    -0.79200
O2016       O  0.76927875  0.10032782  0.69371004    -1.15400
O2017       O  0.73865715  0.03067734  0.67625140    -0.74600
C2018       C  0.70581479  0.04185837  0.68390468     0.96200
C2019       C  0.77355004  0.17126198  0.73471342     0.92600
Al2020     Al  0.78747915  0.14343637  0.67687991     1.55600
O2021       O  0.75697652  0.06724512  0.74828569    -0.79200
C2022       C  0.81286721  0.08086794  0.63434554     0.96700
C2023       C  0.71164636  0.16204917  0.67924112     0.91600
O2024       O  0.70813207  0.14064820  0.70104975    -0.84500
O2025       O  0.78618026  0.31855988  0.54718196    -0.84000
C2026       C  0.63849255  0.35891851  0.55705992     0.95400
O2027       O  0.65154177  0.32527643  0.56306700    -0.73100
O2028       O  0.69613375  0.28364914  0.53241436    -0.76700
Al2029     Al  0.70290950  0.30504514  0.56868801     1.49000
C2030       C  0.70497648  0.29205548  0.50706031     0.90700
O2031       O  0.72355826  0.39009030  0.50862886    -0.82900
O2032       O  0.75105996  0.40547034  0.59128341    -0.76400
Al2033     Al  0.75276577  0.35342615  0.52926623     1.90100
O2034       O  0.71254143  0.42963449  0.54444819    -0.75500
O2035       O  0.67380132  0.36661718  0.61024906    -0.75400
O2036       O  0.65795181  0.38820079  0.55638309    -0.81000
O2037       O  0.70675879  0.31662053  0.60734681    -0.79200
O2038       O  0.71963682  0.35024113  0.55747703    -1.15400
O2039       O  0.75233360  0.28184453  0.57549829    -0.74600
C2040       C  0.78432057  0.29253911  0.56615728     0.96200
C2041       C  0.71200052  0.42216229  0.51766875     0.92600
Al2042     Al  0.70151369  0.39335830  0.57500704     1.55600
O2043       O  0.72960816  0.31728970  0.50254326    -0.79200
C2044       C  0.67714448  0.33122380  0.61691947     0.96700
C2045       C  0.77708227  0.41084646  0.57180631     0.91600
O2046       O  0.77935356  0.39042212  0.54919930    -0.84500
O2047       O  0.66378429  0.19569338  0.70325908    -0.84000
C2048       C  0.62175879  0.34341134  0.69304883     0.95400
O2049       O  0.65538342  0.33063363  0.68686052    -0.73100
O2050       O  0.69768645  0.28776894  0.71796947    -0.76700
Al2051     Al  0.67644076  0.27947258  0.68175545     1.49000
C2052       C  0.69008929  0.27820807  0.74336403     0.90700
O2053       O  0.59305872  0.25877488  0.74177722    -0.82900
O2054       O  0.57630354  0.22976853  0.66009770    -0.76400
Al2055     Al  0.62923503  0.22921940  0.72148459     1.90100
O2056       O  0.55294991  0.26896393  0.70600969    -0.75500
O2057       O  0.61436419  0.30680585  0.63997677    -0.75400
O2058       O  0.59267486  0.32375226  0.69355353    -0.81000
O2059       O  0.66457921  0.27429162  0.64324438    -0.79200
O2060       O  0.63166247  0.26222233  0.69315420    -1.15400
O2061       O  0.70060602  0.23014960  0.67546451    -0.74600
C2062       C  0.68989805  0.19788010  0.68439560     0.96200
C2063       C  0.56110523  0.27039261  0.73247349     0.92600
Al2064     Al  0.58821231  0.27967408  0.67553161     1.55600
O2065       O  0.66584491  0.25262029  0.74784013    -0.79200
C2066       C  0.64973289  0.30363387  0.63336342     0.96700
C2067       C  0.57087427  0.20433325  0.68001616     0.91600
O2068       O  0.59180531  0.20218761  0.70234414    -0.84500
O2069       O  0.95246795  0.40455399  0.54546469    -0.84000
C2070       C  0.59938863  0.36604757  0.55794534     0.95400
O2071       O  0.58615831  0.39966879  0.56403806    -0.73100
O2072       O  0.53957167  0.44211307  0.53483253    -0.76700
Al2073     Al  0.53408638  0.41848685  0.57025140     1.49000
C2074       C  0.53299552  0.43371853  0.50903881     0.90700
O2075       O  0.51898059  0.33265107  0.50916164    -0.82900
O2076       O  0.98665750  0.31717582  0.59049065    -0.76400
Al2077     Al  0.98755119  0.36942136  0.52865142     1.90100
O2078       O  0.52787191  0.29363655  0.54553720    -0.75500
O2079       O  0.56410989  0.35654251  0.61138669    -0.75400
O2080       O  0.58054746  0.33633118  0.55843872    -0.81000
O2081       O  0.53070320  0.40591100  0.60859069    -0.79200
O2082       O  0.51879198  0.37312182  0.55811238    -1.15400
O2083       O  0.98418246  0.43933362  0.57707645    -0.74600
C2084       C  0.95307716  0.42951240  0.56558049     0.96200
C2085       C  0.53038154  0.30078385  0.51893300     0.92600
Al2086     Al  0.53686354  0.33023194  0.57589440     1.55600
O2087       O  0.51142893  0.40623559  0.50307675    -0.79200
C2088       C  0.56076810  0.39192501  0.61779547     0.96700
C2089       C  0.96157336  0.31157306  0.57010515     0.91600
O2090       O  0.96034882  0.33181266  0.54742149    -0.84500
O2091       O  0.57791598  0.02998260  0.70467665    -0.84000
C2092       C  0.61450999  0.38253043  0.69289355     0.95400
O2093       O  0.58101895  0.39604691  0.68689977    -0.73100
O2094       O  0.53936312  0.44429213  0.71588458    -0.76700
Al2095     Al  0.56303720  0.44843107  0.68024946     1.49000
C2096       C  0.54857285  0.45054313  0.74158559     0.90700
O2097       O  0.65016358  0.46333374  0.74090234    -0.82900
O2098       O  0.66496966  0.49381003  0.65909188    -0.76400
Al2099     Al  0.61318368  0.49473110  0.72130633     1.90100
O2100       O  0.68840692  0.45316810  0.70435397    -0.75500
O2101       O  0.62437273  0.41650912  0.63934186    -0.75400
O2102       O  0.64431404  0.40121665  0.69265745    -0.81000
O2103       O  0.57537395  0.45055300  0.64177492    -0.79200
O2104       O  0.60872625  0.46323745  0.69209341    -1.15400
O2105       O  0.54303660  0.49865520  0.67291107    -0.74600
C2106       C  0.55291450  0.02966074  0.68459032     0.96200
C2107       C  0.68180506  0.45145259  0.73107212     0.92600
Al2108     Al  0.65115910  0.44417410  0.67441930     1.55600
O2109       O  0.57678934  0.47124611  0.74723374    -0.79200
C2110       C  0.58908825  0.42014186  0.63286618     0.96700
C2111       C  0.67077927  0.01932520  0.67915115     0.91600
O2112       O  0.65054061  0.02130352  0.70183275    -0.84500
O2113       O  0.98725200  0.79667689  0.32481235    -0.84000
C2114       C  0.52992393  0.92600663  0.26316479     0.95400
O2115       O  0.51711163  0.89517419  0.25261225    -0.73100
O2116       O  0.51818671  0.81982079  0.24669419    -0.76700
Al2117     Al  0.98865533  0.85758148  0.27006829     1.49000
C2118       C  0.53559218  0.78838297  0.25280354     0.90700
O2119       O  0.58703881  0.83292715  0.29387435    -0.82900
O2120       O  0.54895312  0.85582073  0.35770331    -0.76400
Al2121     Al  0.53735107  0.81160640  0.30690778     1.90100
O2122       O  0.58163159  0.89216586  0.31095246    -0.75500
O2123       O  0.98003192  0.90427382  0.33263473    -0.75400
O2124       O  0.52893788  0.93283585  0.29057253    -0.81000
O2125       O  0.95798394  0.89478770  0.28763033    -0.79200
O2126       O  0.51888050  0.85805113  0.29907453    -1.15400
O2127       O  0.95627432  0.81989722  0.28650495    -0.74600
C2128       C  0.95688778  0.79962321  0.30951738     0.96200
C2129       C  0.60016440  0.86643946  0.29868370     0.92600
Al2130     Al  0.53279989  0.89405899  0.32215234     1.55600
O2131       O  0.53719957  0.77529723  0.27803156    -0.79200
C2132       C  0.95686038  0.91241888  0.31175595     0.96700
C2133       C  0.56682122  0.82188457  0.35942618     0.91600
O2134       O  0.56560978  0.79854588  0.33872439    -0.84500
O2135       O  0.54526889  0.73299788  0.42472690    -0.84000
C2136       C  0.68051953  0.77515066  0.48422583     0.95400
O2137       O  0.65265138  0.75660674  0.49361059    -0.73100
O2138       O  0.58197502  0.76090974  0.50360017    -0.76700
Al2139     Al  0.61272567  0.73087212  0.47656152     1.49000
C2140       C  0.54890089  0.77361687  0.49921141     0.90700
O2141       O  0.58075650  0.82794834  0.45898806    -0.82900
O2142       O  0.61437710  0.78175832  0.38807964    -0.76400
Al2143     Al  0.56192718  0.78149553  0.44199779     1.90100
O2144       O  0.63571103  0.82686745  0.43378547    -0.75500
O2145       O  0.66607987  0.72591216  0.41691593    -0.75400
O2146       O  0.68400987  0.78153164  0.45726824    -0.81000
O2147       O  0.64658288  0.69855502  0.45737541    -0.79200
O2148       O  0.60805183  0.76227758  0.44741131    -1.15400
O2149       O  0.57253780  0.70063285  0.46131094    -0.74600
C2150       C  0.55043336  0.70188460  0.43917077     0.96200
C2151       C  0.61211525  0.84316356  0.45036160     0.92600
Al2152     Al  0.64664358  0.77718922  0.42530502     1.55600
O2153       O  0.53448410  0.76822044  0.47512921    -0.79200
C2154       C  0.66968268  0.70038607  0.43651616     0.96700
C2155       C  0.58464133  0.80398327  0.38625532     0.91600
O2156       O  0.56434632  0.80738320  0.40785318    -0.84500
O2157       O  0.74942990  0.93876838  0.32587315    -0.84000
C2158       C  0.70704819  0.80252733  0.26636401     0.95400
O2159       O  0.72735018  0.82935529  0.25741591    -0.73100
O2160       O  0.72214780  0.90017094  0.24690942    -0.76700
Al2161     Al  0.75221625  0.87012604  0.27456679     1.49000
C2162       C  0.70940319  0.93339164  0.25089147     0.90700
O2163       O  0.65488743  0.90379093  0.29115565    -0.82900
O2164       O  0.70197055  0.86889154  0.36246812    -0.76400
Al2165     Al  0.70114512  0.92218280  0.30838926     1.90100
O2166       O  0.65534791  0.84944519  0.31707614    -0.75500
O2167       O  0.75441260  0.81548637  0.33346528    -0.75400
O2168       O  0.69867645  0.80006230  0.29308805    -0.81000
O2169       O  0.78449566  0.83691427  0.29477025    -0.79200
O2170       O  0.72019552  0.87545581  0.30328108    -1.15400
O2171       O  0.78192642  0.91093563  0.28965421    -0.74600
C2172       C  0.78057540  0.93339170  0.31161564     0.96200
C2173       C  0.63958446  0.87257635  0.29992951     0.92600
Al2174     Al  0.70437675  0.83694359  0.32521156     1.55600
O2175       O  0.71527476  0.94839154  0.27474355    -0.79200
C2176       C  0.78090844  0.81255708  0.31469813     0.96700
C2177       C  0.68102321  0.89946466  0.36464433     0.91600
O2178       O  0.67580919  0.91900181  0.34291603    -0.84500
O2179       O  0.68457657  0.99777221  0.42713215    -0.84000
C2180       C  0.55795975  0.95256221  0.48779481     0.95400
O2181       O  0.58859312  0.96534280  0.49875660    -0.73100
O2182       O  0.66343277  0.96661977  0.50474766    -0.76700
Al2183     Al  0.62589103  0.99512303  0.48203032     1.49000
C2184       C  0.69298723  0.94780042  0.49702906     0.90700
O2185       O  0.65047295  0.89739443  0.45507124    -0.82900
O2186       O  0.62906848  0.93300475  0.39238135    -0.76400
Al2187     Al  0.66568261  0.94717863  0.44101888     1.90100
O2188       O  0.59113299  0.90120351  0.43993955    -0.75500
O2189       O  0.58007288  0.00311920  0.41851833    -0.75400
O2190       O  0.55154560  0.95401644  0.46034320    -0.81000
O2191       O  0.58816921  0.52485291  0.46370597    -0.79200
O2192       O  0.62742069  0.96467193  0.45401378    -1.15400
O2193       O  0.66277651  0.52806415  0.46596700    -0.74600
C2194       C  0.68256738  0.52809471  0.44283895     0.96200
C2195       C  0.61761178  0.88294407  0.45119576     0.92600
Al2196     Al  0.59082038  0.95050755  0.42921647     1.55600
O2197       O  0.70247975  0.94543254  0.47067107    -0.79200
C2198       C  0.57086393  0.52584064  0.43942579     0.96700
C2199       C  0.66498554  0.91770680  0.39167123     0.91600
O2200       O  0.68942121  0.92175751  0.41255878    -0.84500
O2201       O  0.79842717  0.74519752  0.32153722    -0.84000
C2202       C  0.93006005  0.69791718  0.26775475     0.95400
O2203       O  0.89805807  0.70948307  0.25811334    -0.73100
O2204       O  0.81962162  0.71734314  0.24992140    -0.76700
Al2205     Al  0.86347660  0.74326097  0.27495616     1.49000
C2206       C  0.79050240  0.69569603  0.25699235     0.90700
O2207       O  0.84450443  0.65223991  0.28906732    -0.82900
O2208       O  0.86381515  0.69414189  0.36291239    -0.76400
Al2209     Al  0.82251466  0.69857276  0.30499213     1.90100
O2210       O  0.89259864  0.64960791  0.32029072    -0.75500
O2211       O  0.91688399  0.75312685  0.33535697    -0.75400
O2212       O  0.93766104  0.69827123  0.29505845    -0.81000
O2213       O  0.90387999  0.77178043  0.29008900    -0.79200
O2214       O  0.86368609  0.71627668  0.30719323    -1.15400
O2215       O  0.83004890  0.78091001  0.29057707    -0.74600
C2216       C  0.80516334  0.77797598  0.31039995     0.96200
C2217       C  0.87182794  0.63439788  0.30131131     0.92600
Al2218     Al  0.90070431  0.70044020  0.32813640     1.55600
O2219       O  0.78088251  0.68835678  0.28357229    -0.79200
C2220       C  0.92331404  0.77464162  0.31325080     0.96700
C2221       C  0.83173269  0.67449093  0.36251255     0.91600
O2222       O  0.81321191  0.67088263  0.33916748    -0.84500
O2223       O  0.73407263  0.67720881  0.42516915    -0.84000
C2224       C  0.78012054  0.55156880  0.48719491     0.95400
O2225       O  0.76754032  0.58266108  0.49784605    -0.73100
O2226       O  0.76596207  0.65760723  0.50314693    -0.76700
Al2227     Al  0.73764000  0.62007091  0.48081465     1.49000
C2228       C  0.78381862  0.68741876  0.49537817     0.90700
O2229       O  0.83396432  0.64630588  0.45357852    -0.82900
O2230       O  0.79768646  0.62238005  0.39050055    -0.76400
Al2231     Al  0.78430960  0.65970910  0.43932199     1.90100
O2232       O  0.83284129  0.58673470  0.43854549    -0.75500
O2233       O  0.72939831  0.57113100  0.41835505    -0.75400
O2234       O  0.78049655  0.54550676  0.45971475    -0.81000
O2235       O  0.70804542  0.58209686  0.46313305    -0.79200
O2236       O  0.76781677  0.62120555  0.45268472    -1.15400
O2237       O  0.70429705  0.65711406  0.46453548    -0.74600
C2238       C  0.70417955  0.67602195  0.44096570     0.96200
C2239       C  0.85003889  0.61426124  0.44948653     0.92600
Al2240     Al  0.78249846  0.58433762  0.42822654     1.55600
O2241       O  0.78521308  0.69711896  0.46896587    -0.79200
C2242       C  0.70687240  0.56307989  0.43963065     0.96700
C2243       C  0.81227014  0.65842454  0.38926351     0.91600
O2244       O  0.80844924  0.68294213  0.41017247    -0.84500
O2245       O  0.94132384  0.97929174  0.32131526    -0.84000
C2246       C  0.81078092  0.53166126  0.26803434     0.95400
O2247       O  0.84290695  0.52032556  0.25873672    -0.73100
O2248       O  0.92049779  0.50859566  0.24997505    -0.76700
Al2249     Al  0.87560826  0.98493495  0.27541064     1.49000
C2250       C  0.95066289  0.52902535  0.25703628     0.90700
O2251       O  0.90007464  0.57510205  0.28970618    -0.82900
O2252       O  0.87812459  0.53616667  0.36273813    -0.76400
Al2253     Al  0.91949856  0.52723486  0.30511949     1.90100
O2254       O  0.85109786  0.57979620  0.31983685    -0.75500
O2255       O  0.82310907  0.97870724  0.33664149    -0.75400
O2256       O  0.80342041  0.53228806  0.29534645    -0.81000
O2257       O  0.83396139  0.95881967  0.29125767    -0.79200
O2258       O  0.87734007  0.51200544  0.30763474    -1.15400
O2259       O  0.90692786  0.94554035  0.29056055    -0.74600
C2260       C  0.93266291  0.94708209  0.30988650     0.96200
C2261       C  0.87314028  0.59402447  0.30152834     0.92600
Al2262     Al  0.84104043  0.53006358  0.32836751     1.55600
O2263       O  0.96136428  0.53527802  0.28362136    -0.79200
C2264       C  0.81495721  0.95736617  0.31471253     0.96700
C2265       C  0.91118231  0.55388459  0.36196856     0.91600
O2266       O  0.93063303  0.55436058  0.33902842    -0.84500
O2267       O  0.00370423  0.54105304  0.42936480    -0.84000
C2268       C  0.95098585  0.67195545  0.48178357     0.95400
O2269       O  0.96200359  0.63975037  0.49115808    -0.73100
O2270       O  0.97297853  0.56198193  0.50034922    -0.76700
Al2271     Al  0.49759154  0.60696965  0.47505628     1.49000
C2272       C  0.95213779  0.53208477  0.49310326     0.90700
O2273       O  0.90831132  0.58406019  0.46005134    -0.82900
O2274       O  0.94809769  0.60507695  0.38717884    -0.76400
Al2275     Al  0.95569433  0.56365406  0.44507769     1.90100
O2276       O  0.90446286  0.63289962  0.42963904    -0.75500
O2277       O  0.50578127  0.65924737  0.41378812    -0.75400
O2278       O  0.95166566  0.67974180  0.45454516    -0.81000
O2279       O  0.52437436  0.64865076  0.45954846    -0.79200
O2280       O  0.97144431  0.60554638  0.44239560    -1.15400
O2281       O  0.53704556  0.57547293  0.46039015    -0.74600
C2282       C  0.53580068  0.54971871  0.44103902     0.96200
C2283       C  0.89007085  0.61149271  0.44828351     0.92600
Al2284     Al  0.95418779  0.64213024  0.42152064     1.55600
O2285       O  0.94601046  0.52171124  0.46640126    -0.79200
C2286       C  0.52653813  0.66747588  0.43599627     0.96700
C2287       C  0.92981199  0.57231400  0.38796265     0.91600
O2288       O  0.92884978  0.55295571  0.41094891    -0.84500
O2289       O  0.91197453  0.77985464  0.04703348    -0.84000
C2290       C  0.87268851  0.63062479  0.05617416     0.95400
O2291       O  0.90625946  0.64317489  0.06219373    -0.73100
O2292       O  0.94506717  0.68701785  0.03004657    -0.76700
Al2293     Al  0.92643469  0.69469692  0.06680663     1.49000
C2294       C  0.93669446  0.69748088  0.00496963     0.90700
O2295       O  0.84109660  0.71824753  0.00722745    -0.82900
O2296       O  0.82593407  0.74441094  0.09012341    -0.76400
Al2297     Al  0.87748350  0.74687116  0.02841554     1.90100
O2298       O  0.80226566  0.70589070  0.04301284    -0.75500
O2299       O  0.86619551  0.66751374  0.10948565    -0.75400
O2300       O  0.84362702  0.65077212  0.05547263    -0.81000
O2301       O  0.91672579  0.69913288  0.10575852    -0.79200
O2302       O  0.88114636  0.71262268  0.05622772    -1.15400
O2303       O  0.95035693  0.74383534  0.07289560    -0.74600
C2304       C  0.93900935  0.77659282  0.06513209     0.96200
C2305       C  0.80940284  0.70624258  0.01616841     0.92600
Al2306     Al  0.83857123  0.69475021  0.07388850     1.55600
O2307       O  0.91363159  0.72464539  0.00118478    -0.79200
C2308       C  0.90170813  0.67040942  0.11620073     0.96700
C2309       C  0.81993523  0.77053710  0.07075836     0.91600
O2310       O  0.84026282  0.77313123  0.04832257    -0.84500
O2311       O  0.53797986  0.65735493  0.20443204    -0.84000
C2312       C  0.89034614  0.61649275  0.19478728     0.95400
O2313       O  0.90256684  0.65009199  0.18843622    -0.73100
O2314       O  0.94635426  0.69119804  0.21963863    -0.76700
Al2315     Al  0.95378323  0.67051662  0.18322698     1.49000
C2316       C  0.95577628  0.68283564  0.24495502     0.90700
O2317       O  0.97812546  0.58656888  0.24357638    -0.82900
O2318       O  0.50434866  0.57073420  0.16119279    -0.76400
Al2319     Al  0.50574445  0.62287342  0.22267940     1.90100
O2320       O  0.96641378  0.54629319  0.20838878    -0.75500
O2321       O  0.92639484  0.60857300  0.14155591    -0.75400
O2322       O  0.91062994  0.58740376  0.19562932    -0.81000
O2323       O  0.95770996  0.65934590  0.14443543    -0.79200
O2324       O  0.97181494  0.62555598  0.19458359    -1.15400
O2325       O  0.00290158  0.69406116  0.17655392    -0.74600
C2326       C  0.53532277  0.68310121  0.18537621     0.96200
C2327       C  0.96737911  0.55413594  0.23514896     0.92600
Al2328     Al  0.95454295  0.58232758  0.17729227     1.55600
O2329       O  0.98215371  0.65901658  0.24936286    -0.79200
C2330       C  0.92886025  0.64391421  0.13441553     0.96700
C2331       C  0.53075588  0.56526910  0.18051874     0.91600
O2332       O  0.53313387  0.58563612  0.20310449    -0.84500
O2333       O  0.82424769  0.94391292  0.04756418    -0.84000
C2334       C  0.86527352  0.59139407  0.05634178     0.95400
O2335       O  0.83206411  0.57891642  0.06361653    -0.73100
O2336       O  0.78894257  0.53381756  0.03456442    -0.76700
Al2337     Al  0.81227714  0.52730361  0.06994372     1.49000
C2338       C  0.79663883  0.52546281  0.00894395     0.90700
O2339       O  0.89455409  0.50419722  0.00720145    -0.82900
O2340       O  0.91263474  0.97807211  0.08946742    -0.76400
Al2341     Al  0.85858983  0.97633891  0.02891196     1.90100
O2342       O  0.93564759  0.51559261  0.04178907    -0.75500
O2343       O  0.87536387  0.55666961  0.10939590    -0.75400
O2344       O  0.89441917  0.57130332  0.05474296    -0.81000
O2345       O  0.82605639  0.52343870  0.10818676    -0.79200
O2346       O  0.85676774  0.50993704  0.05714953    -1.15400
O2347       O  0.78943394  0.97816211  0.07740307    -0.74600
C2348       C  0.79919982  0.94607378  0.06724200     0.96200
C2349       C  0.92721141  0.51497173  0.01514071     0.92600
Al2350     Al  0.90046914  0.52772485  0.07336799     1.55600
O2351       O  0.82157654  0.50051076  0.00339177    -0.79200
C2352       C  0.84045811  0.55331155  0.11727345     0.96700
C2353       C  0.91753293  0.95151817  0.07011321     0.91600
O2354       O  0.89642815  0.94880563  0.04789589    -0.84500
O2355       O  0.70237703  0.56886848  0.20193939    -0.84000
C2356       C  0.85121295  0.60890755  0.19481982     0.95400
O2357       O  0.83887719  0.57544536  0.18820536    -0.73100
O2358       O  0.79512109  0.53603199  0.21966759    -0.76700
Al2359     Al  0.78760401  0.55513456  0.18294105     1.49000
C2360       C  0.78474884  0.54482199  0.24469617     0.90700
O2361       O  0.76166304  0.63915835  0.24266313    -0.82900
O2362       O  0.73826499  0.65657947  0.16018732    -0.76400
Al2363     Al  0.73443732  0.60324133  0.22100288     1.90100
O2364       O  0.77558074  0.67926444  0.20807448    -0.75500
O2365       O  0.81557500  0.61638226  0.14130326    -0.75400
O2366       O  0.83094537  0.63790817  0.19590140    -0.81000
O2367       O  0.78370595  0.56583458  0.14409824    -0.79200
O2368       O  0.76927982  0.60032336  0.19371055    -1.15400
O2369       O  0.73865853  0.53067274  0.17625185    -0.74600
C2370       C  0.70581559  0.54185501  0.18390364     0.96200
C2371       C  0.77355219  0.67125462  0.23471688     0.92600
Al2372     Al  0.78747977  0.64343271  0.17688188     1.55600
O2373       O  0.75697561  0.56723530  0.24828442    -0.79200
C2374       C  0.81286695  0.58086739  0.13434477     0.96700
C2375       C  0.71164777  0.66204751  0.17924447     0.91600
O2376       O  0.70813437  0.64064674  0.20105328    -0.84500
O2377       O  0.78618090  0.81855695  0.04718245    -0.84000
C2378       C  0.63849367  0.85892017  0.05706046     0.95400
O2379       O  0.65154179  0.82527732  0.06306711    -0.73100
O2380       O  0.69613055  0.78364949  0.03241292    -0.76700
Al2381     Al  0.70290911  0.80504326  0.06868663     1.49000
C2382       C  0.70497581  0.79205359  0.00705932     0.90700
O2383       O  0.72356075  0.89008668  0.00862777    -0.82900
O2384       O  0.75106405  0.90546528  0.09128297    -0.76400
Al2385     Al  0.75276783  0.85342267  0.02926553     1.90100
O2386       O  0.71254560  0.92963133  0.04444734    -0.75500
O2387       O  0.67380515  0.86661476  0.11024904    -0.75400
O2388       O  0.65795403  0.88820140  0.05638383    -0.81000
O2389       O  0.70676204  0.81661798  0.10734504    -0.79200
O2390       O  0.71963821  0.85023857  0.05747596    -1.15400
O2391       O  0.75233210  0.78183957  0.07549569    -0.74600
C2392       C  0.78431969  0.79253515  0.06615699     0.96200
C2393       C  0.71200292  0.92215891  0.01766814     0.92600
Al2394     Al  0.70151712  0.89335602  0.07500680     1.55600
O2395       O  0.72961051  0.81728550  0.00254245    -0.79200
C2396       C  0.67714852  0.83122072  0.11691848     0.96700
C2397       C  0.77708580  0.91084259  0.07180583     0.91600
O2398       O  0.77935659  0.89041916  0.04919822    -0.84500
O2399       O  0.66378370  0.69569199  0.20326019    -0.84000
C2400       C  0.62176131  0.84341200  0.19304416     0.95400
O2401       O  0.65538617  0.83063410  0.18685787    -0.73100
O2402       O  0.69768532  0.78776989  0.21796979    -0.76700
Al2403     Al  0.67644305  0.77947184  0.18175547     1.49000
C2404       C  0.69008756  0.77820880  0.24336442     0.90700
O2405       O  0.59305962  0.75877776  0.24177569    -0.82900
O2406       O  0.57630437  0.72976575  0.16009722    -0.76400
Al2407     Al  0.62923489  0.72922008  0.22148445     1.90100
O2408       O  0.55295162  0.76896716  0.20600751    -0.75500
O2409       O  0.61436779  0.80680038  0.13997294    -0.75400
O2410       O  0.59267701  0.82375286  0.19354691    -0.81000
O2411       O  0.66458462  0.77428920  0.14324430    -0.79200
O2412       O  0.63166392  0.76222204  0.19315305    -1.15400
O2413       O  0.70060823  0.73014796  0.17546741    -0.74600
C2414       C  0.68989919  0.69787858  0.18439801     0.96200
C2415       C  0.56110649  0.77039607  0.23247142     0.92600
Al2416     Al  0.58821459  0.77967275  0.17552855     1.55600
O2417       O  0.66584466  0.75262015  0.24784013    -0.79200
C2418       C  0.64973709  0.80363048  0.13336198     0.96700
C2419       C  0.57087421  0.70433218  0.18001680     0.91600
O2420       O  0.59180438  0.70218856  0.20234513    -0.84500
O2421       O  0.95246696  0.90455191  0.04546558    -0.84000
C2422       C  0.59938959  0.86604999  0.05794531     0.95400
O2423       O  0.58615929  0.89967137  0.06403783    -0.73100
O2424       O  0.53957120  0.94211121  0.03483060    -0.76700
Al2425     Al  0.53408661  0.91848844  0.07025035     1.49000
C2426       C  0.53299387  0.93371582  0.00903734     0.90700
O2427       O  0.51897818  0.83264963  0.00916277    -0.82900
O2428       O  0.98665833  0.81717676  0.09049208    -0.76400
Al2429     Al  0.98755001  0.86942013  0.02865174     1.90100
O2430       O  0.52787445  0.79363692  0.04553873    -0.75500
O2431       O  0.56411164  0.85654747  0.11138710    -0.75400
O2432       O  0.58054818  0.83633413  0.05843837    -0.81000
O2433       O  0.53070410  0.90591564  0.10859032    -0.79200
O2434       O  0.51879200  0.87312247  0.05811296    -1.15400
O2435       O  0.98418412  0.93933634  0.07707267    -0.74600
C2436       C  0.95307769  0.92951252  0.06557923     0.96200
C2437       C  0.53038154  0.80078333  0.01893414     0.92600
Al2438     Al  0.53686542  0.83023391  0.07589543     1.55600
O2439       O  0.51142547  0.90623379  0.00307630    -0.79200
C2440       C  0.56076941  0.89193003  0.11779538     0.96700
C2441       C  0.96157414  0.81157263  0.07010675     0.91600
O2442       O  0.96034935  0.83181120  0.04742281    -0.84500
O2443       O  0.57791468  0.52997882  0.20467638    -0.84000
C2444       C  0.61451172  0.88253122  0.19289147     0.95400
O2445       O  0.58102122  0.89604776  0.18689697    -0.73100
O2446       O  0.53936654  0.94428718  0.21588553    -0.76700
Al2447     Al  0.56303743  0.94843241  0.18025037     1.49000
C2448       C  0.54857123  0.95054379  0.24158659     0.90700
O2449       O  0.65015944  0.96333630  0.24090466    -0.82900
O2450       O  0.66496804  0.99381379  0.15909344    -0.76400
Al2451     Al  0.61318168  0.99473485  0.22130785     1.90100
O2452       O  0.68840464  0.95317366  0.20435663    -0.75500
O2453       O  0.62437325  0.91651412  0.13934273    -0.75400
O2454       O  0.64431517  0.90121903  0.19265935    -0.81000
O2455       O  0.57537428  0.95055866  0.14177546    -0.79200
O2456       O  0.60872535  0.96324016  0.19209503    -1.15400
O2457       O  0.54303350  0.99865705  0.17291546    -0.74600
C2458       C  0.55291516  0.52965842  0.18458810     0.96200
C2459       C  0.68180161  0.95145673  0.23107464     0.92600
Al2460     Al  0.65115885  0.94417775  0.17442116     1.55600
O2461       O  0.57678363  0.97125282  0.24723522    -0.79200
C2462       C  0.58908880  0.92014800  0.13286603     0.96700
C2463       C  0.67077999  0.51932185  0.17914915     0.91600
O2464       O  0.65054012  0.52130170  0.20183028    -0.84500
O2465       O  0.98725224  0.79667500  0.82481164    -0.84000
C2466       C  0.52992453  0.92600637  0.76316514     0.95400
O2467       O  0.51711181  0.89517402  0.75261266    -0.73100
O2468       O  0.51818642  0.81982061  0.74669469    -0.76700
Al2469     Al  0.98865605  0.85758009  0.77006783     1.49000
C2470       C  0.53559180  0.78838279  0.75280395     0.90700
O2471       O  0.58703892  0.83292659  0.79387411    -0.82900
O2472       O  0.54895315  0.85582062  0.85770355    -0.76400
Al2473     Al  0.53735125  0.81160625  0.80690803     1.90100
O2474       O  0.58163210  0.89216504  0.81095284    -0.75500
O2475       O  0.98003169  0.90427245  0.83263407    -0.75400
O2476       O  0.52893875  0.93283566  0.79057283    -0.81000
O2477       O  0.95798454  0.89478667  0.78762946    -0.79200
O2478       O  0.51888055  0.85805111  0.79907495    -1.15400
O2479       O  0.95627467  0.81989622  0.78650445    -0.74600
C2480       C  0.95688789  0.79962216  0.80951673     0.96200
C2481       C  0.60016472  0.86643878  0.79868377     0.92600
Al2482     Al  0.53280028  0.89405892  0.82215263     1.55600
O2483       O  0.53719902  0.77529684  0.77803194    -0.79200
C2484       C  0.95686055  0.91241783  0.81175495     0.96700
C2485       C  0.56682169  0.82188458  0.85942625     0.91600
O2486       O  0.56561042  0.79854599  0.83872442    -0.84500
O2487       O  0.54526943  0.73299875  0.92472702    -0.84000
C2488       C  0.68052048  0.77515116  0.98422544     0.95400
O2489       O  0.65265230  0.75660709  0.99361053    -0.73100
O2490       O  0.58197599  0.76091175  0.00360010    -0.76700
Al2491     Al  0.61272592  0.73087311  0.97656178     1.49000
C2492       C  0.54890177  0.77361847  0.99921127     0.90700
O2493       O  0.58075773  0.82794925  0.95898794    -0.82900
O2494       O  0.61437751  0.78175818  0.88807959    -0.76400
Al2495     Al  0.56192797  0.78149653  0.94199776     1.90100
O2496       O  0.63571201  0.82686793  0.93378504    -0.75500
O2497       O  0.66607978  0.72591205  0.91691634    -0.75400
O2498       O  0.68401042  0.78153206  0.95726803    -0.81000
O2499       O  0.64658217  0.69855500  0.95737574    -0.79200
O2500       O  0.60805241  0.76227830  0.94741137    -1.15400
O2501       O  0.57253739  0.70063425  0.96131174    -0.74600
C2502       C  0.55043328  0.70188575  0.93917111     0.96200
C2503       C  0.61211649  0.84316424  0.95036129     0.92600
Al2504     Al  0.64664412  0.77718942  0.92530493     1.55600
O2505       O  0.53448487  0.76822168  0.97512915    -0.79200
C2506       C  0.66968203  0.70038581  0.93651655     0.96700
C2507       C  0.58464194  0.80398353  0.88625530     0.91600
O2508       O  0.56434736  0.80738414  0.90785326    -0.84500
O2509       O  0.74943008  0.93876846  0.82587228    -0.84000
C2510       C  0.70704835  0.80252628  0.76636479     0.95400
O2511       O  0.72735027  0.82935419  0.75741638    -0.73100
O2512       O  0.72214749  0.90016960  0.74690878    -0.76700
Al2513     Al  0.75221637  0.87012542  0.77456649     1.49000
C2514       C  0.70940318  0.93339067  0.75089072     0.90700
O2515       O  0.65488778  0.90378991  0.79115503    -0.82900
O2516       O  0.70197163  0.86889249  0.86246796    -0.76400
Al2517     Al  0.70114535  0.92218240  0.80838851     1.90100
O2518       O  0.65534836  0.84944492  0.81707647    -0.75500
O2519       O  0.75441343  0.81548695  0.83346558    -0.75400
O2520       O  0.69867696  0.80006148  0.79308885    -0.81000
O2521       O  0.78449606  0.83691445  0.79477023    -0.79200
O2522       O  0.72019590  0.87545549  0.80328084    -1.15400
O2523       O  0.78192658  0.91093558  0.78965336    -0.74600
C2524       C  0.78057564  0.93339174  0.81161458     0.96200
C2525       C  0.63958485  0.87257553  0.79992943     0.92600
Al2526     Al  0.70437745  0.83694365  0.82521187     1.55600
O2527       O  0.71527512  0.94839062  0.77474254    -0.79200
C2528       C  0.78090897  0.81255749  0.81469817     0.96700
C2529       C  0.68102397  0.89946537  0.86464388     0.91600
O2530       O  0.67580926  0.91900183  0.84291528    -0.84500
O2531       O  0.68457714  0.99777295  0.92713166    -0.84000
C2532       C  0.55795992  0.95256208  0.98779395     0.95400
O2533       O  0.58859341  0.96534302  0.99875578    -0.73100
O2534       O  0.66343315  0.96662048  0.00474704    -0.76700
Al2535     Al  0.62589107  0.99512352  0.98202954     1.49000
C2536       C  0.69298822  0.94780141  0.99702831     0.90700
O2537       O  0.65047395  0.89739532  0.95507109    -0.82900
O2538       O  0.62906941  0.93300604  0.89238062    -0.76400
Al2539     Al  0.66568339  0.94717943  0.94101844     1.90100
O2540       O  0.59113443  0.90120383  0.93993832    -0.75500
O2541       O  0.58007241  0.00311943  0.91851758    -0.75400
O2542       O  0.55154600  0.95401589  0.96034247    -0.81000
O2543       O  0.58816912  0.52485221  0.96370684    -0.79200
O2544       O  0.62742107  0.96467261  0.95401293    -1.15400
O2545       O  0.66277656  0.52806406  0.96596775    -0.74600
C2546       C  0.68256806  0.52809425  0.94284000     0.96200
C2547       C  0.61761299  0.88294475  0.95119514     0.92600
Al2548     Al  0.59082095  0.95050790  0.92921559     1.55600
O2549       O  0.70248064  0.94543384  0.97067059    -0.79200
C2550       C  0.57086432  0.52584010  0.93942645     0.96700
C2551       C  0.66498632  0.91770786  0.89167062     0.91600
O2552       O  0.68942185  0.92175826  0.91255830    -0.84500
O2553       O  0.79842722  0.74519797  0.82153725    -0.84000
C2554       C  0.93005971  0.69791833  0.76775336     0.95400
O2555       O  0.89805797  0.70948377  0.75811223    -0.73100
O2556       O  0.81962131  0.71734318  0.74992095    -0.76700
Al2557     Al  0.86347610  0.74326120  0.77495541     1.49000
C2558       C  0.79050163  0.69569683  0.75699191     0.90700
O2559       O  0.84450257  0.65223981  0.78906734    -0.82900
O2560       O  0.86381473  0.69414141  0.86291164    -0.76400
Al2561     Al  0.82251371  0.69857305  0.80499196     1.90100
O2562       O  0.89259827  0.64960831  0.82028951    -0.75500
O2563       O  0.91688338  0.75312657  0.83535633    -0.75400
O2564       O  0.93766068  0.69827169  0.79505744    -0.81000
O2565       O  0.90387936  0.77178068  0.79008848    -0.79200
O2566       O  0.86368557  0.71627661  0.80719227    -1.15400
O2567       O  0.83004837  0.78090994  0.79057646    -0.74600
C2568       C  0.80516335  0.77797617  0.81039978     0.96200
C2569       C  0.87182649  0.63439804  0.80131088     0.92600
Al2570     Al  0.90070383  0.70044016  0.82813542     1.55600
O2571       O  0.78088144  0.68835815  0.78357188    -0.79200
C2572       C  0.92331362  0.77464133  0.81325035     0.96700
C2573       C  0.83173181  0.67449116  0.86251211     0.91600
O2574       O  0.81321062  0.67088319  0.83916720    -0.84500
O2575       O  0.73407183  0.67720935  0.92516966    -0.84000
C2576       C  0.78012287  0.55156991  0.98719537     0.95400
O2577       O  0.76754299  0.58266272  0.99784674    -0.73100
O2578       O  0.76596158  0.65760868  0.00314678    -0.76700
Al2579     Al  0.73764081  0.62007117  0.98081509     1.49000
C2580       C  0.78381790  0.68741996  0.99537828     0.90700
O2581       O  0.83396438  0.64630840  0.95357789    -0.82900
O2582       O  0.79768562  0.62238084  0.89050060    -0.76400
Al2583     Al  0.78430910  0.65971059  0.93932196     1.90100
O2584       O  0.83284181  0.58673707  0.93854510    -0.75500
O2585       O  0.72939885  0.57113071  0.91835596    -0.75400
O2586       O  0.78049851  0.54550811  0.95971545    -0.81000
O2587       O  0.70804727  0.58209571  0.96313436    -0.79200
O2588       O  0.76781713  0.62120653  0.95268485    -1.15400
O2589       O  0.70429625  0.65711301  0.96453559    -0.74600
C2590       C  0.70417870  0.67602153  0.94096603     0.96200
C2591       C  0.85003923  0.61426369  0.94948584     0.92600
Al2592     Al  0.78249902  0.58433864  0.92822680     1.55600
O2593       O  0.78521243  0.69712053  0.96896574    -0.79200
C2594       C  0.70687363  0.56307913  0.93963186     0.96700
C2595       C  0.81226912  0.65842533  0.88926316     0.91600
O2596       O  0.80844790  0.68294334  0.91017184    -0.84500
O2597       O  0.94132441  0.97929092  0.82131403    -0.84000
C2598       C  0.81078023  0.53166283  0.76803585     0.95400
O2599       O  0.84290668  0.52032735  0.75873813    -0.73100
O2600       O  0.92049761  0.50859633  0.74997582    -0.76700
Al2601     Al  0.87560852  0.98493534  0.77540968     1.49000
C2602       C  0.95066233  0.52902659  0.75703719     0.90700
O2603       O  0.90007249  0.57510210  0.78970617    -0.82900
O2604       O  0.87812436  0.53616719  0.86273915    -0.76400
Al2605     Al  0.91949732  0.52723550  0.80511978     1.90100
O2606       O  0.85109755  0.57979718  0.81983843    -0.75500
O2607       O  0.82310955  0.97870712  0.83664055    -0.75400
O2608       O  0.80341980  0.53228945  0.79534775    -0.81000
O2609       O  0.83396138  0.95882021  0.79125650    -0.79200
O2610       O  0.87733929  0.51200608  0.80763626    -1.15400
O2611       O  0.90692815  0.94553995  0.79055922    -0.74600
C2612       C  0.93266332  0.94708139  0.80988530     0.96200
C2613       C  0.87313882  0.59402480  0.80152875     0.92600
Al2614     Al  0.84103981  0.53006462  0.82836897     1.55600
O2615       O  0.96136325  0.53527989  0.78362241    -0.79200
C2616       C  0.81495732  0.95736652  0.81471158     0.96700
C2617       C  0.91118180  0.55388509  0.86196912     0.91600
O2618       O  0.93063199  0.55436139  0.83902849    -0.84500
O2619       O  0.00370335  0.54105266  0.92936511    -0.84000
C2620       C  0.95098572  0.67195516  0.98178264     0.95400
O2621       O  0.96200361  0.63974994  0.99115721    -0.73100
O2622       O  0.97297898  0.56198171  0.00034914    -0.76700
Al2623     Al  0.49759235  0.60696949  0.97505609     1.49000
C2624       C  0.95213705  0.53208508  0.99310318     0.90700
O2625       O  0.90831139  0.58406294  0.96005157    -0.82900
O2626       O  0.94809864  0.60507702  0.88717836    -0.76400
Al2627     Al  0.95569379  0.56365513  0.94507795     1.90100
O2628       O  0.90446332  0.63290066  0.92963765    -0.75500
O2629       O  0.50578200  0.65924787  0.91378824    -0.75400
O2630       O  0.95166625  0.67974192  0.95454446    -0.81000
O2631       O  0.52437478  0.64865122  0.95954856    -0.79200
O2632       O  0.97144459  0.60554664  0.94239486    -1.15400
O2633       O  0.53704638  0.57547323  0.96038972    -0.74600
C2634       C  0.53580127  0.54971834  0.94103913     0.96200
C2635       C  0.89007114  0.61149524  0.94828285     0.92600
Al2636     Al  0.95418858  0.64213056  0.92151977     1.55600
O2637       O  0.94600848  0.52171247  0.96640129    -0.79200
C2638       C  0.52653853  0.66747663  0.93599672     0.96700
C2639       C  0.92981220  0.57231478  0.88796258     0.91600
O2640       O  0.92884911  0.55295705  0.91094932    -0.84500
O2641       O  0.91197504  0.77985510  0.54703391    -0.84000
C2642       C  0.87268997  0.63062515  0.55617311     0.95400
O2643       O  0.90626058  0.64317550  0.56219302    -0.73100
O2644       O  0.94506950  0.68702044  0.53004739    -0.76700
Al2645     Al  0.92643510  0.69469779  0.56680735     1.49000
C2646       C  0.93669521  0.69748211  0.50497021     0.90700
O2647       O  0.84109657  0.71824798  0.50722769    -0.82900
O2648       O  0.82593341  0.74440993  0.59012369    -0.76400
Al2649     Al  0.87748351  0.74687158  0.52841609     1.90100
O2650       O  0.80226570  0.70589050  0.54301277    -0.75500
O2651       O  0.86619501  0.66751221  0.60948509    -0.75400
O2652       O  0.84362812  0.65077242  0.55547143    -0.81000
O2653       O  0.91672504  0.69913193  0.60575922    -0.79200
O2654       O  0.88114658  0.71262308  0.55622811    -1.15400
O2655       O  0.95035623  0.74383657  0.57289771    -0.74600
C2656       C  0.93900930  0.77659374  0.56513326     0.96200
C2657       C  0.80940283  0.70624207  0.51616870     0.92600
Al2658     Al  0.83857136  0.69474967  0.57388822     1.55600
O2659       O  0.91363108  0.72464531  0.50118532    -0.79200
C2660       C  0.90170725  0.67040792  0.61620074     0.96700
C2661       C  0.81993466  0.77053645  0.57075920     0.91600
O2662       O  0.84026288  0.77313164  0.54832345    -0.84500
O2663       O  0.53798088  0.65735357  0.70442992    -0.84000
C2664       C  0.89034585  0.61649397  0.69478838     0.95400
O2665       O  0.90256683  0.65009294  0.68843641    -0.73100
O2666       O  0.94635581  0.69120067  0.71963726    -0.76700
Al2667     Al  0.95378363  0.67051676  0.68322593     1.49000
C2668       C  0.95577689  0.68283709  0.74495410     0.90700
O2669       O  0.97812606  0.58656960  0.74357669    -0.82900
O2670       O  0.50435094  0.57073466  0.66119212    -0.76400
Al2671     Al  0.50574552  0.62287378  0.72267841     1.90100
O2672       O  0.96641319  0.54629357  0.70838971    -0.75500
O2673       O  0.92639284  0.60857171  0.64155683    -0.75400
O2674       O  0.91062946  0.58740498  0.69563123    -0.81000
O2675       O  0.95770956  0.65934366  0.64443467    -0.79200
O2676       O  0.97181482  0.62555622  0.69458344    -1.15400
O2677       O  0.00290213  0.69406061  0.67655147    -0.74600
C2678       C  0.53532276  0.68310153  0.68537567     0.96200
C2679       C  0.96737906  0.55413675  0.73514979     0.92600
Al2680     Al  0.95454183  0.58232738  0.67729326     1.55600
O2681       O  0.98215303  0.65901727  0.74936196    -0.79200
C2682       C  0.92885927  0.64391255  0.63441550     0.96700
C2683       C  0.53075720  0.56526886  0.68051864     0.91600
O2684       O  0.53313439  0.58563554  0.70310449    -0.84500
O2685       O  0.82424599  0.94391318  0.54756417    -0.84000
C2686       C  0.86527446  0.59139452  0.55634102     0.95400
O2687       O  0.83206501  0.57891706  0.56361557    -0.73100
O2688       O  0.78894266  0.53381817  0.53456384    -0.76700
Al2689     Al  0.81227731  0.52730438  0.56994292     1.49000
C2690       C  0.79663791  0.52546219  0.50894312     0.90700
O2691       O  0.89455383  0.50419810  0.50720071    -0.82900
O2692       O  0.91263375  0.97807304  0.58946779    -0.76400
Al2693     Al  0.85858888  0.97633873  0.52891220     1.90100
O2694       O  0.93564740  0.51559194  0.54178870    -0.75500
O2695       O  0.87536377  0.55666979  0.60939541    -0.75400
O2696       O  0.89442022  0.57130343  0.55474264    -0.81000
O2697       O  0.82605610  0.52343935  0.60818600    -0.79200
O2698       O  0.85676764  0.50993752  0.55714874    -1.15400
O2699       O  0.78943330  0.97816210  0.57740394    -0.74600
C2700       C  0.79919836  0.94607404  0.56724259     0.96200
C2701       C  0.92721121  0.51497161  0.51514016     0.92600
Al2702     Al  0.90046907  0.52772469  0.57336752     1.55600
O2703       O  0.82157555  0.50051062  0.50339104    -0.79200
C2704       C  0.84045825  0.55331216  0.61727299     0.96700
C2705       C  0.91753177  0.95151849  0.57011373     0.91600
O2706       O  0.89642672  0.94880527  0.54789683    -0.84500
O2707       O  0.70237710  0.56886812  0.70194008    -0.84000
C2708       C  0.85121252  0.60890885  0.69482057     0.95400
O2709       O  0.83887701  0.57544626  0.68820667    -0.73100
O2710       O  0.79512052  0.53603246  0.71966888    -0.76700
Al2711     Al  0.78760413  0.55513480  0.68294200     1.49000
C2712       C  0.78474851  0.54482284  0.74469717     0.90700
O2713       O  0.76166191  0.63915924  0.74266318    -0.82900
O2714       O  0.73826394  0.65657879  0.66018737    -0.76400
Al2715     Al  0.73443676  0.60324155  0.72100327     1.90100
O2716       O  0.77557959  0.67926486  0.70807421    -0.75500
O2717       O  0.81557465  0.61638236  0.64130349    -0.75400
O2718       O  0.83094484  0.63790935  0.69590126    -0.81000
O2719       O  0.78370683  0.56583402  0.64409901    -0.79200
O2720       O  0.76927946  0.60032359  0.69371101    -1.15400
O2721       O  0.73865885  0.53067282  0.67625237    -0.74600
C2722       C  0.70581592  0.54185485  0.68390417     0.96200
C2723       C  0.77355112  0.67125531  0.73471669     0.92600
Al2724     Al  0.78747896  0.64343288  0.67688190     1.55600
O2725       O  0.75697518  0.56723650  0.74828533    -0.79200
C2726       C  0.81286715  0.58086705  0.63434526     0.96700
C2727       C  0.71164672  0.66204682  0.67924450     0.91600
O2728       O  0.70813335  0.64064613  0.70105333    -0.84500
O2729       O  0.78618031  0.81855678  0.54718369    -0.84000
C2730       C  0.63849244  0.85891895  0.55706158     0.95400
O2731       O  0.65154066  0.82527651  0.56306824    -0.73100
O2732       O  0.69612867  0.78364933  0.53241337    -0.76700
Al2733     Al  0.70290811  0.80504229  0.56868712     1.49000
C2734       C  0.70497488  0.79205314  0.50705970     0.90700
O2735       O  0.72355952  0.89008557  0.50862852    -0.82900
O2736       O  0.75106294  0.90546506  0.59128372    -0.76400
Al2737     Al  0.75276698  0.85342198  0.52926636     1.90100
O2738       O  0.71254411  0.92963031  0.54444804    -0.75500
O2739       O  0.67380505  0.86661358  0.61024994    -0.75400
O2740       O  0.65795297  0.88820048  0.55638486    -0.81000
O2741       O  0.70676197  0.81661669  0.60734547    -0.79200
O2742       O  0.71963725  0.85023772  0.55747668    -1.15400
O2743       O  0.75233112  0.78183804  0.57549558    -0.74600
C2744       C  0.78431908  0.79253453  0.56615747     0.96200
C2745       C  0.71200180  0.92215758  0.51766860     0.92600
Al2746     Al  0.70151611  0.89335516  0.57500760     1.55600
O2747       O  0.72961025  0.81728422  0.50254323    -0.79200
C2748       C  0.67714843  0.83121975  0.61691919     0.96700
C2749       C  0.77708469  0.91084251  0.57180623     0.91600
O2750       O  0.77935527  0.89041909  0.54919894    -0.84500
O2751       O  0.66378230  0.69569111  0.70326000    -0.84000
C2752       C  0.62176135  0.84341185  0.69304426     0.95400
O2753       O  0.65538621  0.83063379  0.68685805    -0.73100
O2754       O  0.69768424  0.78777000  0.71797064    -0.76700
Al2755     Al  0.67644292  0.77947146  0.68175623     1.49000
C2756       C  0.69008736  0.77820793  0.74336513     0.90700
O2757       O  0.59305961  0.75877797  0.74177618    -0.82900
O2758       O  0.57630437  0.72976620  0.66009724    -0.76400
Al2759     Al  0.62923439  0.72921968  0.72148478     1.90100
O2760       O  0.55295154  0.76896725  0.70600794    -0.75500
O2761       O  0.61436789  0.80679977  0.63997341    -0.75400
O2762       O  0.59267712  0.82375281  0.69354738    -0.81000
O2763       O  0.66458469  0.77428830  0.64324504    -0.79200
O2764       O  0.63166373  0.76222185  0.69315357    -1.15400
O2765       O  0.70060828  0.73014754  0.67546871    -0.74600
C2766       C  0.68989835  0.69787796  0.68439831     0.96200
C2767       C  0.56110644  0.77039612  0.73247190     0.92600
Al2768     Al  0.58821455  0.77967279  0.67552894     1.55600
O2769       O  0.66584509  0.75261852  0.74784071    -0.79200
C2770       C  0.64973741  0.80362930  0.63336257     0.96700
C2771       C  0.57087388  0.70433276  0.68001669     0.91600
O2772       O  0.59180344  0.70218924  0.70234540    -0.84500
O2773       O  0.95246650  0.90455288  0.54546583    -0.84000
C2774       C  0.59938855  0.86604942  0.55794617     0.95400
O2775       O  0.58615809  0.89967062  0.56403815    -0.73100
O2776       O  0.53956982  0.94211133  0.53483110    -0.76700
Al2777     Al  0.53408532  0.91848788  0.57025062     1.49000
C2778       C  0.53299347  0.93371547  0.50903759     0.90700
O2779       O  0.51897810  0.83264858  0.50916286    -0.82900
O2780       O  0.98665866  0.81717791  0.59049284    -0.76400
Al2781     Al  0.98754965  0.86942085  0.52865218     1.90100
O2782       O  0.52787360  0.79363599  0.54553899    -0.75500
O2783       O  0.56411003  0.85654690  0.61138760    -0.75400
O2784       O  0.58054700  0.83633317  0.55843935    -0.81000
O2785       O  0.53070270  0.90591502  0.60859054    -0.79200
O2786       O  0.51879107  0.87312193  0.55811297    -1.15400
O2787       O  0.98418330  0.93933719  0.57707322    -0.74600
C2788       C  0.95307709  0.92951347  0.56557981     0.96200
C2789       C  0.53038100  0.80078212  0.51893437     0.92600
Al2790     Al  0.53686395  0.83023338  0.57589574     1.55600
O2791       O  0.51142635  0.90623285  0.50307632    -0.79200
C2792       C  0.56076794  0.89192966  0.61779560     0.96700
C2793       C  0.96157410  0.81157375  0.57010767     0.91600
O2794       O  0.96034910  0.83181217  0.54742375    -0.84500
O2795       O  0.57791521  0.52997814  0.70467692    -0.84000
C2796       C  0.61451196  0.88253108  0.69289092     0.95400
O2797       O  0.58102122  0.89604747  0.68689696    -0.73100
O2798       O  0.53936705  0.94428641  0.71588588    -0.76700
Al2799     Al  0.56303709  0.94843191  0.68025057     1.49000
C2800       C  0.54857173  0.95054338  0.74158684     0.90700
O2801       O  0.65015962  0.96333589  0.74090412    -0.82900
O2802       O  0.66496766  0.99381415  0.65909300    -0.76400
Al2803     Al  0.61318170  0.99473464  0.72130759     1.90100
O2804       O  0.68840449  0.95317307  0.70435586    -0.75500
O2805       O  0.62437232  0.91651451  0.63934191    -0.75400
O2806       O  0.64431533  0.90121876  0.69265793    -0.81000
O2807       O  0.57537302  0.95055835  0.64177559    -0.79200
O2808       O  0.60872516  0.96323993  0.69209474    -1.15400
O2809       O  0.54303262  0.99865633  0.67291589    -0.74600
C2810       C  0.55291599  0.52965798  0.68458843     0.96200
C2811       C  0.68180169  0.95145586  0.73107374     0.92600
Al2812     Al  0.65115851  0.94417782  0.67442033     1.55600
O2813       O  0.57678392  0.97125278  0.74723530    -0.79200
C2814       C  0.58908769  0.92014777  0.63286592     0.96700
C2815       C  0.67078044  0.51932170  0.67914962     0.91600
O2816       O  0.65054055  0.52130134  0.70183070    -0.84500
loop_ 
_geom_bond_atom_site_label_1 
_geom_bond_atom_site_label_2 
_geom_bond_distance 
_geom_bond_site_symmetry_2 
_ccdc_geom_bond_type 
O1           C16   1.278       .  A
O1        Al1417   2.013       .  S
C2           O12   1.285       .  A
C2            O3   1.266       .  A
C2          C336   1.472       .  S
O3        Al1413   1.843   1_455  S
O4            C6   1.285       .  A
O4        Al1413   1.988   1_455  S
Al5          O13   1.865       .  S
Al5          O15   1.904       .  S
Al5        O1411   1.843       .  S
Al5        O1412   1.988       .  S
Al5        O1422   1.703       .  S
C6           O19   1.252       .  A
C6          C303   1.437       .  S
O7           C17   1.280       .  A
O7           Al9   1.992       .  S
O8           C21   1.340       .  A
O8          Al18   2.188       .  S
Al9          O22   1.824       .  S
Al9          O19   1.836       .  S
Al9        O1409   2.013   1_455  S
Al9          O14   1.781       .  S
O10          C17   1.241       .  A
O10         Al18   1.788       .  S
O11          C20   1.288       .  A
O11       Al1426   1.941       .  S
O12         Al18   1.996       .  S
O13          C20   1.270       .  A
O14         Al18   1.718       .  S
O14       Al1413   1.703   1_455  S
O15          C16   1.277       .  A
C16         C108   1.480       .  S
C17          C61   1.399       .  S
Al18       O1419   1.941   1_455  S
C20         C148   1.476       .  S
C21          O22   1.254       .  A
C21          C43   1.518       .  S
O23          C38   1.288       .  A
O23         Al31   1.962       .  S
C24          O34   1.269       .  A
C24          O25   1.254       .  A
C24         C622   1.479       .  S
O25         Al27   1.840       .  S
O26          C28   1.253       .  A
O26         Al27   1.949       .  S
Al27         O35   1.856       .  S
Al27         O37   1.898       .  S
Al27         O36   1.744       .  S
C28          O41   1.233       .  A
C28         C677   1.462       .  S
O29          C39   1.288       .  A
O29         Al31   1.921       .  S
O30          C43   1.297       .  A
O30         Al40   2.057       .  S
Al31         O44   1.820       .  S
Al31         O41   1.868       .  S
Al31         O36   1.762       .  S
O32          C39   1.259       .  A
O32         Al40   1.817       .  S
O33          C42   1.277       .  A
O33         Al40   1.951       .  S
O34         Al40   1.973       .  S
O35          C42   1.260       .  A
O36         Al40   1.776       .  S
O37          C38   1.280       .  A
C38         C174   1.477       .  S
C39          C83   1.406       .  S
C42         C126   1.487       .  S
C43          O44   1.230       .  A
O45          C60   1.287       .  A
O45         Al53   1.961       .  S
C46          O56   1.270       .  A
C46          O47   1.252       .  A
C46         C292   1.482       .  S
O47         Al49   1.850       .  S
O48          C50   1.254       .  A
O48         Al49   1.955       .  S
Al49         O57   1.864       .  S
Al49         O59   1.900       .  S
Al49         O58   1.745       .  S
C50          O63   1.234       .  A
C50         C347   1.469       .  S
O51          C61   1.286       .  A
O51         Al53   1.916       .  S
O52          C65   1.296       .  A
O52         Al62   2.047       .  S
Al53         O66   1.828       .  S
Al53         O63   1.873       .  S
Al53         O58   1.775       .  S
O54          C61   1.256       .  A
O54         Al62   1.807       .  S
O55          C64   1.273       .  A
O55         Al62   1.938       .  S
O56         Al62   1.971       .  S
O57          C64   1.261       .  A
O58         Al62   1.778       .  S
O59          C60   1.280       .  A
C60         C152   1.478       .  S
C64         C104   1.486       .  S
C65          O66   1.226       .  A
C65          C87   1.506       .  S
O67         C786   1.284       .  A
O67         Al75   2.000       .  S
C68          O78   1.285       .  A
C68          O69   1.268       .  A
C68         C666   1.474       .  S
O69         Al71   1.847       .  S
O70          C72   1.273       .  A
O70         Al71   1.949       .  S
Al71        O783   1.875       .  S
Al71        O785   1.890       .  S
Al71         O80   1.672       .  S
C72          O85   1.263       .  A
C72         C633   1.465       .  S
O73          C83   1.272       .  A
O73         Al75   1.937       .  S
O74          C87   1.363       .  A
O74         Al84   2.246       .  S
Al75         O88   1.786       .  S
Al75         O85   1.876       .  S
Al75         O80   1.587       .  S
O76          C83   1.236       .  A
O76         Al84   1.794       .  S
O77         C790   1.287       .  A
O77         Al84   1.940       .  S
O78         Al84   1.993       .  S
O79          C86   1.271       .  A
O79        Al775   1.875   1_545  S
O80         Al84   1.786       .  S
O81          C82   1.273       .  A
O81        Al775   1.890   1_545  S
C82         O771   1.284   1_545  A
C82         C130   1.503       .  S
C86         O781   1.287       .  A
C86         C170   1.482       .  S
C87          O88   1.294       .  A
O89         C104   1.281       .  A
O89         Al97   1.982       .  S
C90         O100   1.286       .  A
C90          O91   1.268       .  A
C90         C204   1.479       .  S
O91         Al93   1.855       .  S
O92          C94   1.316       .  A
O92         Al93   2.124       .  S
Al93        O101   1.868       .  S
Al93        O103   1.897       .  S
Al93        O102   1.762       .  S
C94         O107   1.298       .  A
C94         C259   1.461       .  S
O95         C105   1.270       .  A
O95         Al97   1.932       .  S
O96         C109   1.321       .  A
O96        Al106   2.074       .  S
Al97        O110   1.882       .  S
Al97        O107   1.795       .  S
Al97        O102   1.575       .  S
O98         C105   1.255       .  A
O98        Al106   1.836       .  S
O99         C108   1.289       .  A
O99        Al106   1.958       .  S
O100       Al106   2.003       .  S
O101        C108   1.268       .  A
O102       Al106   1.704       .  S
O103        C104   1.269       .  A
C105        C149   1.412       .  S
C109        O110   1.261       .  A
C109        C131   1.521       .  S
O111        C126   1.277       .  A
O111       Al119   1.968       .  S
C112        O122   1.284       .  A
C112        O113   1.268       .  A
C112        C578   1.472       .  S
O113       Al115   1.845       .  S
O114        C116   1.272       .  A
O114       Al115   1.941       .  S
Al115       O123   1.873       .  S
Al115       O125   1.893       .  S
Al115       O124   1.675       .  S
C116        O129   1.266       .  A
C116        C545   1.467       .  S
O117        C127   1.264       .  A
O117       Al119   1.912       .  S
O118        C131   1.364       .  A
O118       Al128   2.259       .  S
Al119       O132   1.789       .  S
Al119       O129   1.889       .  S
Al119       O124   1.594       .  S
O120        C127   1.243       .  A
O120       Al128   1.826       .  S
O121        C130   1.293       .  A
O121       Al128   1.970       .  S
O122       Al128   1.992       .  S
O123        C130   1.270       .  A
O124       Al128   1.784       .  S
O125        C126   1.273       .  A
C127        C171   1.405       .  S
C131        O132   1.294       .  A
O133        C148   1.280       .  A
O133       Al845   1.984       .  S
C134        O144   1.286       .  A
C134        O135   1.265       .  A
C134        C248   1.480       .  S
O135       Al841   1.848   1_545  S
O136        C138   1.318       .  A
O136       Al841   2.136   1_545  S
Al137       O145   1.876       .  S
Al137       O147   1.889       .  S
Al137       O839   1.848       .  S
Al137       O840   2.136       .  S
Al137       O850   1.760       .  S
C138        O151   1.299       .  A
C138        C215   1.465       .  S
O139        C149   1.271       .  A
O139       Al141   1.938       .  S
O140        C153   1.317       .  A
O140       Al150   2.057       .  S
Al141       O154   1.867       .  S
Al141       O151   1.796       .  S
Al141       O837   1.984   1_545  S
Al141       O146   1.577       .  S
O142        C149   1.252       .  A
O142       Al150   1.821       .  S
O143        C152   1.287       .  A
O143       Al854   1.945       .  S
O144       Al150   2.011       .  S
O145        C152   1.272       .  A
O146       Al150   1.708       .  S
O146       Al841   1.760   1_545  S
O147        C148   1.266       .  A
Al150       O847   1.945   1_545  S
C153        O154   1.259       .  A
C153        C175   1.507       .  S
O155       C1578   1.282       .  A
O155       Al163   1.990       .  S
C156        O166   1.286       .  A
C156        O157   1.265       .  A
C156        C534   1.476       .  S
O157      Al1567   1.843       .  S
O158        C160   1.320       .  A
O158      Al1567   2.147       .  S
Al159       O167   1.882   1_655  S
Al159       O169   1.886   1_655  S
Al159      O1565   1.843       .  S
Al159      O1566   2.147       .  S
Al159      O1576   1.760       .  S
C160        O173   1.300       .  A
C160        C589   1.472       .  S
O161        C171   1.271       .  A
O161       Al163   1.930       .  S
O162        C175   1.317       .  A
O162       Al172   2.054       .  S
Al163       O176   1.868       .  S
Al163       O173   1.802       .  S
Al163       O168   1.574       .  S
O164        C171   1.251       .  A
O164       Al172   1.813       .  S
O165        C174   1.287       .  A
O165      Al1580   1.941   1_455  S
O166       Al172   2.010       .  S
O167        C174   1.274       .  A
O168       Al172   1.709       .  S
O168      Al1567   1.760       .  S
O169        C170   1.266       .  A
C170       O1563   1.282       .  A
Al172      O1573   1.941       .  S
C175        O176   1.259       .  A
O177        C192   1.265       .  A
O177       Al185   1.879       .  S
C178        O188   1.234       .  A
C178        O179   1.287       .  A
C178        C222   1.398       .  S
O179       Al181   1.950       .  S
O180        C182   1.247       .  A
O180       Al181   1.836       .  S
Al181       O189   1.834       .  S
Al181       O191   1.936       .  S
Al181       O190   1.769       .  S
C182        O195   1.254       .  A
C182        C508   1.476   1_554  S
O183        C193   1.260       .  A
O183       Al185   1.893       .  S
O184        C197   1.295       .  A
O184       Al194   1.937       .  S
Al185       O198   1.835       .  S
Al185       O195   1.942       .  S
Al185       O190   1.760       .  S
O186        C193   1.263       .  A
O186       Al194   1.944       .  S
O187        C196   1.285       .  A
O187       Al194   2.126       .  S
O188       Al194   1.762       .  S
O189        C196   1.236       .  A
O190       Al194   1.816       .  S
O191        C192   1.262       .  A
C192        C329   1.477       .  S
C193        C468   1.467   1_554  S
C196        C218   1.567       .  S
C197        O198   1.261       .  A
C197        C280   1.476       .  S
O199        C214   1.262       .  A
O199       Al207   1.861       .  S
C200        O210   1.237       .  A
C200        O201   1.288       .  A
C200        C244   1.397       .  S
O201       Al203   1.950       .  S
O202        C204   1.247       .  A
O202       Al203   1.844       .  S
Al203       O211   1.834       .  S
Al203       O213   1.937       .  S
Al203       O212   1.770       .  S
C204        O217   1.256       .  A
O205        C215   1.257       .  A
O205      Al1615   1.872       .  S
O206        C219   1.296       .  A
O206      Al1624   1.937   1_455  S
Al207       O220   1.846       .  S
Al207      O1613   1.872   1_455  S
Al207      O1625   1.942   1_455  S
Al207      O1620   1.757   1_455  S
O208        C215   1.263       .  A
O208       Al216   1.953       .  S
O209        C218   1.283       .  A
O209       Al216   2.124       .  S
O210       Al216   1.764       .  S
O211        C218   1.236       .  A
O212       Al216   1.813       .  S
O212      Al1615   1.757       .  S
O213       C1622   1.262       .  A
C214       O1621   1.262       .  A
C214        C307   1.475       .  S
Al216      O1614   1.937       .  S
O217      Al1615   1.942       .  S
C219        O220   1.262       .  A
C219        C346   1.474       .  S
O221        C236   1.265       .  A
O221       Al229   1.871       .  S
C222        O232   1.237       .  A
C222        O223   1.290       .  A
O223       Al225   1.960       .  S
O224        C226   1.245       .  A
O224       Al225   1.836       .  S
Al225       O233   1.831       .  S
Al225       O939   1.932   1_545  S
Al225       O234   1.770       .  S
C226        O239   1.256       .  A
C226        C464   1.472   1_554  S
O227        C237   1.259       .  A
O227       Al933   1.888   1_545  S
O228        C241   1.296       .  A
O228       Al942   1.934       .  S
Al229       O242   1.851       .  S
Al229       O931   1.888       .  S
Al229       O943   1.939       .  S
Al229       O938   1.752       .  S
O230        C237   1.263       .  A
O230       Al238   1.953       .  S
O231        C240   1.282       .  A
O231       Al238   2.131       .  S
O232       Al238   1.762       .  S
O233        C240   1.234       .  A
O234       Al238   1.814       .  S
O234       Al933   1.752   1_545  S
O235        C236   1.260       .  A
O235       Al929   1.932       .  S
C236        C285   1.475       .  S
C237        C512   1.472   1_554  S
Al238       O932   1.934   1_545  S
O239       Al933   1.939   1_545  S
C240        C262   1.571       .  S
C241        O242   1.265       .  A
C241        C324   1.473       .  S
O243        C258   1.262       .  A
O243       Al251   1.866       .  S
C244        O254   1.234       .  A
C244        O245   1.285       .  A
O245       Al247   1.949       .  S
O246        C248   1.247       .  A
O246       Al247   1.839       .  S
Al247       O255   1.834       .  S
Al247       O257   1.944       .  S
Al247       O256   1.771       .  S
C248        O261   1.255       .  A
O249        C259   1.255       .  A
O249       Al251   1.867       .  S
O250        C263   1.295       .  A
O250       Al260   1.938       .  S
Al251       O264   1.841       .  S
Al251       O261   1.944       .  S
Al251       O256   1.757       .  S
O252        C259   1.263       .  A
O252       Al260   1.948       .  S
O253        C262   1.285       .  A
O253       Al260   2.130       .  S
O254       Al260   1.764       .  S
O255        C262   1.238       .  A
O256       Al260   1.817       .  S
O257        C258   1.263       .  A
C258        C351   1.478       .  S
C263        O264   1.262       .  A
C263        C302   1.480       .  S
O265        C280   1.266       .  A
O265       Al273   1.875       .  S
C266        O276   1.234       .  A
C266        O267   1.289       .  A
C266        C310   1.390       .  S
O267       Al269   1.945       .  S
O268        C270   1.246       .  A
O268       Al269   1.845       .  S
Al269       O277   1.831       .  S
Al269       O279   1.931       .  S
Al269       O278   1.768       .  S
C270        O283   1.256       .  A
C270        C376   1.479   1_554  S
O271        C281   1.260       .  A
O271       Al273   1.891       .  S
O272        C285   1.296       .  A
O272       Al282   1.937       .  S
Al273       O286   1.841       .  S
Al273       O283   1.941       .  S
Al273       O278   1.749       .  S
O274        C281   1.261       .  A
O274       Al282   1.939       .  S
O275        C284   1.280       .  A
O275       Al282   2.118       .  S
O276       Al282   1.758       .  S
O277        C284   1.235       .  A
O278       Al282   1.819       .  S
O279        C280   1.260       .  A
C281        C424   1.465   1_554  S
C284        C306   1.564       .  S
C285        O286   1.264       .  A
O287        C302   1.266       .  A
O287       Al295   1.877       .  S
C288        O298   1.233       .  A
C288        O289   1.289       .  A
C288        C332   1.389       .  S
O289       Al291   1.944       .  S
O290        C292   1.248       .  A
O290       Al291   1.848       .  S
Al291       O299   1.830       .  S
Al291       O301   1.937       .  S
Al291       O300   1.765       .  S
C292        O305   1.255       .  A
O293        C303   1.262       .  A
O293       Al295   1.879       .  S
O294        C307   1.295       .  A
O294       Al304   1.930       .  S
Al295       O308   1.842       .  S
Al295       O305   1.946       .  S
Al295       O300   1.748       .  S
O296        C303   1.253       .  A
O296       Al304   1.912       .  S
O297        C306   1.280       .  A
O297       Al304   2.110       .  S
O298       Al304   1.756       .  S
O299        C306   1.234       .  A
O300       Al304   1.824       .  S
O301        C302   1.262       .  A
C307        O308   1.264       .  A
O309        C324   1.271       .  A
O309       Al317   1.896       .  S
C310        O320   1.235       .  A
C310        O311   1.291       .  A
O311       Al313   1.955       .  S
O312        C314   1.245       .  A
O312       Al313   1.843       .  S
Al313       O321   1.827       .  S
Al313      O1731   1.915   1_455  S
Al313       O322   1.766       .  S
C314        O327   1.255       .  A
C314        C420   1.474   1_554  S
O315        C325   1.265       .  A
O315      Al1725   1.910   1_455  S
O316        C329   1.300       .  A
O316      Al1734   1.941       .  S
Al317       O330   1.847       .  S
Al317      O1723   1.910       .  S
Al317      O1735   1.943       .  S
Al317      O1730   1.746       .  S
O318        C325   1.256       .  A
O318       Al326   1.920       .  S
O319        C328   1.276       .  A
O319       Al326   2.104       .  S
O320       Al326   1.745       .  S
O321        C328   1.232       .  A
O322       Al326   1.820       .  S
O322      Al1725   1.746   1_455  S
O323        C324   1.259       .  A
O323      Al1721   1.915       .  S
C325        C380   1.462   1_554  S
Al326      O1724   1.941   1_455  S
O327      Al1725   1.943   1_455  S
C328        C350   1.563       .  S
C329        O330   1.265       .  A
O331        C346   1.272       .  A
O331      Al1043   1.900   1_545  S
C332        O342   1.235       .  A
C332        O333   1.291       .  A
O333       Al335   1.957       .  S
O334        C336   1.246       .  A
O334       Al335   1.848       .  S
Al335       O343   1.828       .  S
Al335       O345   1.916       .  S
Al335       O344   1.769       .  S
C336        O349   1.255       .  A
O337        C347   1.265       .  A
O337       Al339   1.917       .  S
O338       C1055   1.299       .  A
O338       Al348   1.940       .  S
Al339       O349   1.938       .  S
Al339      O1035   1.900       .  S
Al339      O1056   1.846       .  S
Al339       O344   1.744       .  S
O340        C347   1.255       .  A
O340       Al348   1.922       .  S
O341        C350   1.276       .  A
O341       Al348   2.103       .  S
O342       Al348   1.742       .  S
O343        C350   1.233       .  A
O344       Al348   1.818       .  S
O345       C1050   1.259       .  A
C346       O1049   1.259   1_545  A
C351        O352   1.266       .  A
C351       O1042   1.299   1_545  A
O352      Al1043   1.846   1_545  S
O353        C368   1.278       .  A
O353      Al1769   2.013       .  S
C354        O364   1.285       .  A
C354        O355   1.266       .  A
C354        C688   1.472       .  S
O355      Al1765   1.843   1_455  S
O356        C358   1.285       .  A
O356      Al1765   1.988   1_455  S
Al357      O1763   1.843       .  S
Al357      O1764   1.988       .  S
Al357       O365   1.865       .  S
Al357       O367   1.904       .  S
Al357      O1774   1.703       .  S
C358        O371   1.252       .  A
C358        C655   1.437       .  S
O359        C369   1.280       .  A
O359       Al361   1.992       .  S
O360        C373   1.340       .  A
O360       Al370   2.188       .  S
Al361      O1761   2.013   1_455  S
Al361       O374   1.824       .  S
Al361       O371   1.836       .  S
Al361       O366   1.781       .  S
O362        C369   1.241       .  A
O362       Al370   1.788       .  S
O363        C372   1.288       .  A
O363      Al1778   1.941       .  S
O364       Al370   1.996       .  S
O365        C372   1.270       .  A
O366      Al1765   1.703   1_455  S
O366       Al370   1.718       .  S
O367        C368   1.277       .  A
C368        C460   1.480       .  S
C369        C413   1.399       .  S
Al370      O1771   1.941   1_455  S
C372        C500   1.476       .  S
C373        O374   1.254       .  A
C373        C395   1.518       .  S
O375        C390   1.288       .  A
O375       Al383   1.962       .  S
C376        O386   1.269       .  A
C376        O377   1.254       .  A
O377       Al379   1.840       .  S
O378        C380   1.253   1_554  A
O378       Al379   1.949   1_554  S
Al379       O387   1.856       .  S
Al379       O389   1.898       .  S
Al379       O388   1.744       .  S
C380        O393   1.233       .  A
O381        C391   1.288       .  A
O381       Al383   1.921       .  S
O382        C395   1.297       .  A
O382       Al392   2.057       .  S
Al383       O396   1.820       .  S
Al383       O393   1.868       .  S
Al383       O388   1.762       .  S
O384        C391   1.259       .  A
O384       Al392   1.817       .  S
O385        C394   1.277       .  A
O385       Al392   1.951       .  S
O386       Al392   1.973       .  S
O387        C394   1.260       .  A
O388       Al392   1.776       .  S
O389        C390   1.280       .  A
C390        C526   1.477       .  S
C391        C435   1.406       .  S
C394        C478   1.487       .  S
C395        O396   1.230       .  A
O397        C412   1.287       .  A
O397       Al405   1.961       .  S
C398        O408   1.270       .  A
C398        O399   1.252       .  A
C398        C644   1.482       .  S
O399       Al401   1.849       .  S
O400        C402   1.254       .  A
O400       Al401   1.955       .  S
Al401       O409   1.864       .  S
Al401       O411   1.900       .  S
Al401       O410   1.745       .  S
C402        O415   1.234       .  A
C402        C699   1.469       .  S
O403        C413   1.286       .  A
O403       Al405   1.916       .  S
O404        C417   1.296       .  A
O404       Al414   2.047       .  S
Al405       O418   1.828       .  S
Al405       O415   1.873       .  S
Al405       O410   1.775       .  S
O406        C413   1.256       .  A
O406       Al414   1.807       .  S
O407        C416   1.273       .  A
O407       Al414   1.938       .  S
O408       Al414   1.971       .  S
O409        C416   1.261       .  A
O410       Al414   1.778       .  S
O411        C412   1.280       .  A
C412        C504   1.478       .  S
C416        C456   1.486       .  S
C417        O418   1.226       .  A
C417        C439   1.506       .  S
O419       C1138   1.283       .  A
O419       Al427   2.000       .  S
C420        O430   1.285       .  A
C420        O421   1.268       .  A
O421       Al423   1.847       .  S
O422        C424   1.273   1_554  A
O422       Al423   1.949   1_554  S
Al423      O1135   1.875       .  S
Al423      O1137   1.890       .  S
Al423       O432   1.672       .  S
C424        O437   1.263       .  A
O425        C435   1.272       .  A
O425       Al427   1.937       .  S
O426        C439   1.363       .  A
O426       Al436   2.246       .  S
Al427       O440   1.786       .  S
Al427       O437   1.876       .  S
Al427       O432   1.587       .  S
O428        C435   1.236       .  A
O428       Al436   1.794       .  S
O429       C1142   1.287       .  A
O429       Al436   1.940       .  S
O430       Al436   1.993       .  S
O431        C438   1.271       .  A
O431      Al1127   1.875   1_545  S
O432       Al436   1.786       .  S
O433        C434   1.273       .  A
O433      Al1127   1.890   1_545  S
C434       O1123   1.284   1_545  A
C434        C482   1.503       .  S
C438       O1133   1.287       .  A
C438        C522   1.482       .  S
C439        O440   1.294       .  A
O441        C456   1.281       .  A
O441       Al449   1.982       .  S
C442        O452   1.286       .  A
C442        O443   1.268       .  A
C442        C556   1.479       .  S
O443       Al445   1.855       .  S
O444        C446   1.316       .  A
O444       Al445   2.124       .  S
Al445       O453   1.868       .  S
Al445       O455   1.897       .  S
Al445       O454   1.762       .  S
C446        O459   1.298       .  A
C446        C611   1.461       .  S
O447        C457   1.270       .  A
O447       Al449   1.932       .  S
O448        C461   1.321       .  A
O448       Al458   2.074       .  S
Al449       O462   1.882       .  S
Al449       O459   1.795       .  S
Al449       O454   1.575       .  S
O450        C457   1.255       .  A
O450       Al458   1.836       .  S
O451        C460   1.289       .  A
O451       Al458   1.958       .  S
O452       Al458   2.003       .  S
O453        C460   1.268       .  A
O454       Al458   1.704       .  S
O455        C456   1.269       .  A
C457        C501   1.412       .  S
C461        O462   1.261       .  A
C461        C483   1.521       .  S
O463        C478   1.277       .  A
O463       Al471   1.968       .  S
C464        O474   1.284       .  A
C464        O465   1.268       .  A
O465       Al467   1.845       .  S
O466        C468   1.272   1_554  A
O466       Al467   1.941   1_554  S
Al467       O475   1.873       .  S
Al467       O477   1.893       .  S
Al467       O476   1.675       .  S
C468        O481   1.266       .  A
O469        C479   1.264       .  A
O469       Al471   1.912       .  S
O470        C483   1.364       .  A
O470       Al480   2.259       .  S
Al471       O484   1.789       .  S
Al471       O481   1.889       .  S
Al471       O476   1.594       .  S
O472        C479   1.243       .  A
O472       Al480   1.826       .  S
O473        C482   1.293       .  A
O473       Al480   1.970       .  S
O474       Al480   1.992       .  S
O475        C482   1.270       .  A
O476       Al480   1.784       .  S
O477        C478   1.273       .  A
C479        C523   1.405       .  S
C483        O484   1.294       .  A
O485        C500   1.280       .  A
O485      Al1197   1.984       .  S
C486        O496   1.286       .  A
C486        O487   1.265       .  A
C486        C600   1.480       .  S
O487      Al1193   1.848   1_545  S
O488        C490   1.318       .  A
O488      Al1193   2.136   1_545  S
Al489      O1191   1.848       .  S
Al489      O1192   2.136       .  S
Al489       O497   1.876       .  S
Al489       O499   1.889       .  S
Al489      O1202   1.760       .  S
C490        O503   1.299       .  A
C490        C567   1.465       .  S
O491        C501   1.271       .  A
O491       Al493   1.938       .  S
O492        C505   1.317       .  A
O492       Al502   2.057       .  S
Al493      O1189   1.984   1_545  S
Al493       O506   1.867       .  S
Al493       O503   1.796       .  S
Al493       O498   1.577       .  S
O494        C501   1.252       .  A
O494       Al502   1.821       .  S
O495        C504   1.287       .  A
O495      Al1206   1.945       .  S
O496       Al502   2.011       .  S
O497        C504   1.272       .  A
O498      Al1193   1.760   1_545  S
O498       Al502   1.708       .  S
O499        C500   1.266       .  A
Al502      O1199   1.945   1_545  S
C505        O506   1.259       .  A
C505        C527   1.507       .  S
O507       C1930   1.282       .  A
O507       Al515   1.990       .  S
C508        O518   1.286       .  A
C508        O509   1.265       .  A
O509      Al1919   1.843       .  S
O510        C512   1.320   1_554  A
O510      Al1919   2.147   1_554  S
Al511      O1917   1.843       .  S
Al511      O1918   2.147   1_556  S
Al511       O519   1.882   1_655  S
Al511       O521   1.886   1_655  S
Al511      O1928   1.760       .  S
C512        O525   1.300       .  A
O513        C523   1.271       .  A
O513       Al515   1.930       .  S
O514        C527   1.317       .  A
O514       Al524   2.054       .  S
Al515       O528   1.868       .  S
Al515       O525   1.802       .  S
Al515       O520   1.574       .  S
O516        C523   1.251       .  A
O516       Al524   1.813       .  S
O517        C526   1.287       .  A
O517      Al1932   1.941   1_455  S
O518       Al524   2.010       .  S
O519        C526   1.274       .  A
O520      Al1919   1.760       .  S
O520       Al524   1.709       .  S
O521        C522   1.266       .  A
C522       O1915   1.282       .  A
Al524      O1925   1.941       .  S
C527        O528   1.259       .  A
O529        C544   1.265       .  A
O529       Al537   1.879       .  S
C530        O540   1.234       .  A
C530        O531   1.287       .  A
C530        C574   1.398       .  S
O531       Al533   1.950       .  S
O532        C534   1.247       .  A
O532       Al533   1.836       .  S
Al533       O541   1.834       .  S
Al533       O543   1.936       .  S
Al533       O542   1.769       .  S
C534        O547   1.255       .  A
O535        C545   1.260       .  A
O535       Al537   1.893       .  S
O536        C549   1.295       .  A
O536       Al546   1.937       .  S
Al537       O550   1.835       .  S
Al537       O547   1.942       .  S
Al537       O542   1.760       .  S
O538        C545   1.263       .  A
O538       Al546   1.944       .  S
O539        C548   1.285       .  A
O539       Al546   2.126       .  S
O540       Al546   1.762       .  S
O541        C548   1.236       .  A
O542       Al546   1.816       .  S
O543        C544   1.262       .  A
C544        C681   1.477       .  S
C548        C570   1.567       .  S
C549        O550   1.261       .  A
C549        C632   1.476       .  S
O551        C566   1.262       .  A
O551       Al559   1.861       .  S
C552        O562   1.237       .  A
C552        O553   1.288       .  A
C552        C596   1.397       .  S
O553       Al555   1.950       .  S
O554        C556   1.247       .  A
O554       Al555   1.844       .  S
Al555       O563   1.834       .  S
Al555       O565   1.937       .  S
Al555       O564   1.770       .  S
C556        O569   1.256       .  A
O557        C567   1.257       .  A
O557      Al1967   1.872       .  S
O558        C571   1.296       .  A
O558      Al1976   1.937   1_455  S
Al559      O1965   1.872   1_455  S
Al559       O572   1.846       .  S
Al559      O1977   1.942   1_455  S
Al559      O1972   1.757   1_455  S
O560        C567   1.263       .  A
O560       Al568   1.953       .  S
O561        C570   1.283       .  A
O561       Al568   2.124       .  S
O562       Al568   1.764       .  S
O563        C570   1.236       .  A
O564      Al1967   1.757       .  S
O564       Al568   1.813       .  S
O565       C1974   1.262       .  A
C566       O1973   1.262       .  A
C566        C659   1.475       .  S
Al568      O1966   1.937       .  S
O569      Al1967   1.942       .  S
C571        O572   1.262       .  A
C571        C698   1.474       .  S
O573        C588   1.265       .  A
O573       Al581   1.871       .  S
C574        O584   1.237       .  A
C574        O575   1.290       .  A
O575       Al577   1.960       .  S
O576        C578   1.245       .  A
O576       Al577   1.836       .  S
Al577       O585   1.831       .  S
Al577      O1291   1.932   1_545  S
Al577       O586   1.770       .  S
C578        O591   1.256       .  A
O579        C589   1.259       .  A
O579      Al1285   1.888   1_545  S
O580        C593   1.296       .  A
O580      Al1294   1.934       .  S
Al581      O1283   1.888       .  S
Al581       O594   1.851       .  S
Al581      O1295   1.939       .  S
Al581      O1290   1.752       .  S
O582        C589   1.263       .  A
O582       Al590   1.953       .  S
O583        C592   1.282       .  A
O583       Al590   2.131       .  S
O584       Al590   1.762       .  S
O585        C592   1.234       .  A
O586      Al1285   1.752   1_545  S
O586       Al590   1.814       .  S
O587        C588   1.260       .  A
O587      Al1281   1.932       .  S
C588        C637   1.475       .  S
Al590      O1284   1.934   1_545  S
O591      Al1285   1.939   1_545  S
C592        C614   1.571       .  S
C593        O594   1.265       .  A
C593        C676   1.473       .  S
O595        C610   1.262       .  A
O595       Al603   1.866       .  S
C596        O606   1.234       .  A
C596        O597   1.285       .  A
O597       Al599   1.949       .  S
O598        C600   1.247       .  A
O598       Al599   1.839       .  S
Al599       O607   1.834       .  S
Al599       O609   1.944       .  S
Al599       O608   1.771       .  S
C600        O613   1.256       .  A
O601        C611   1.255       .  A
O601       Al603   1.867       .  S
O602        C615   1.295       .  A
O602       Al612   1.938       .  S
Al603       O616   1.841       .  S
Al603       O613   1.944       .  S
Al603       O608   1.757       .  S
O604        C611   1.263       .  A
O604       Al612   1.948       .  S
O605        C614   1.285       .  A
O605       Al612   2.130       .  S
O606       Al612   1.764       .  S
O607        C614   1.238       .  A
O608       Al612   1.817       .  S
O609        C610   1.263       .  A
C610        C703   1.478       .  S
C615        O616   1.262       .  A
C615        C654   1.480       .  S
O617        C632   1.266       .  A
O617       Al625   1.875       .  S
C618        O628   1.234       .  A
C618        O619   1.289       .  A
C618        C662   1.390       .  S
O619       Al621   1.945       .  S
O620        C622   1.246       .  A
O620       Al621   1.845       .  S
Al621       O629   1.831       .  S
Al621       O631   1.931       .  S
Al621       O630   1.768       .  S
C622        O635   1.256       .  A
O623        C633   1.260       .  A
O623       Al625   1.891       .  S
O624        C637   1.296       .  A
O624       Al634   1.937       .  S
Al625       O638   1.841       .  S
Al625       O635   1.941       .  S
Al625       O630   1.749       .  S
O626        C633   1.261       .  A
O626       Al634   1.939       .  S
O627        C636   1.280       .  A
O627       Al634   2.118       .  S
O628       Al634   1.758       .  S
O629        C636   1.235       .  A
O630       Al634   1.819       .  S
O631        C632   1.260       .  A
C636        C658   1.564       .  S
C637        O638   1.264       .  A
O639        C654   1.266       .  A
O639       Al647   1.877       .  S
C640        O650   1.233       .  A
C640        O641   1.289       .  A
C640        C684   1.389       .  S
O641       Al643   1.944       .  S
O642        C644   1.248       .  A
O642       Al643   1.848       .  S
Al643       O651   1.830       .  S
Al643       O653   1.937       .  S
Al643       O652   1.765       .  S
C644        O657   1.255       .  A
O645        C655   1.262       .  A
O645       Al647   1.879       .  S
O646        C659   1.295       .  A
O646       Al656   1.930       .  S
Al647       O660   1.842       .  S
Al647       O657   1.946       .  S
Al647       O652   1.748       .  S
O648        C655   1.253       .  A
O648       Al656   1.912       .  S
O649        C658   1.280       .  A
O649       Al656   2.110       .  S
O650       Al656   1.756       .  S
O651        C658   1.234       .  A
O652       Al656   1.824       .  S
O653        C654   1.262       .  A
C659        O660   1.264       .  A
O661        C676   1.271       .  A
O661       Al669   1.896       .  S
C662        O672   1.235       .  A
C662        O663   1.291       .  A
O663       Al665   1.955       .  S
O664        C666   1.245       .  A
O664       Al665   1.843       .  S
Al665       O673   1.827       .  S
Al665      O2083   1.915   1_455  S
Al665       O674   1.766       .  S
C666        O679   1.255       .  A
O667        C677   1.265       .  A
O667      Al2077   1.910   1_455  S
O668        C681   1.300       .  A
O668      Al2086   1.941       .  S
Al669      O2075   1.910       .  S
Al669       O682   1.847       .  S
Al669      O2087   1.943       .  S
Al669      O2082   1.746       .  S
O670        C677   1.256       .  A
O670       Al678   1.920       .  S
O671        C680   1.276       .  A
O671       Al678   2.104       .  S
O672       Al678   1.745       .  S
O673        C680   1.232       .  A
O674      Al2077   1.746   1_455  S
O674       Al678   1.820       .  S
O675        C676   1.259       .  A
O675      Al2073   1.915       .  S
Al678      O2076   1.941   1_455  S
O679      Al2077   1.943   1_455  S
C680        C702   1.563       .  S
C681        O682   1.265       .  A
O683        C698   1.272       .  A
O683      Al1395   1.900   1_545  S
C684        O694   1.235       .  A
C684        O685   1.291       .  A
O685       Al687   1.957       .  S
O686        C688   1.246       .  A
O686       Al687   1.848       .  S
Al687       O695   1.828       .  S
Al687       O697   1.916       .  S
Al687       O696   1.769       .  S
C688        O701   1.255       .  A
O689        C699   1.265       .  A
O689       Al691   1.917       .  S
O690       C1407   1.299       .  A
O690       Al700   1.940       .  S
Al691      O1387   1.900       .  S
Al691      O1408   1.846       .  S
Al691       O701   1.938       .  S
Al691       O696   1.744       .  S
O692        C699   1.255       .  A
O692       Al700   1.922       .  S
O693        C702   1.275       .  A
O693       Al700   2.103       .  S
O694       Al700   1.742       .  S
O695        C702   1.233       .  A
O696       Al700   1.818       .  S
O697       C1402   1.259       .  A
C698       O1401   1.259   1_545  A
C703       O1394   1.299   1_545  A
C703        O704   1.266       .  A
O704      Al1395   1.846   1_545  S
O705        C720   1.278       .  A
O705      Al2121   2.013       .  S
C706        O716   1.285       .  A
C706        O707   1.266       .  A
C706       C1040   1.472       .  S
O707      Al2117   1.843   1_455  S
O708        C710   1.285       .  A
O708      Al2117   1.988   1_455  S
Al709      O2115   1.843       .  S
Al709      O2116   1.988       .  S
Al709       O717   1.865       .  S
Al709       O719   1.904       .  S
Al709      O2126   1.703       .  S
C710        O723   1.252       .  A
C710       C1007   1.437       .  S
O711        C721   1.280       .  A
O711       Al713   1.992       .  S
O712        C725   1.340       .  A
O712       Al722   2.188       .  S
Al713      O2113   2.013   1_455  S
Al713       O726   1.824       .  S
Al713       O723   1.836       .  S
Al713       O718   1.781       .  S
O714        C721   1.241       .  A
O714       Al722   1.788       .  S
O715        C724   1.288       .  A
O715      Al2130   1.941       .  S
O716       Al722   1.996       .  S
O717        C724   1.270       .  A
O718      Al2117   1.703   1_455  S
O718       Al722   1.718       .  S
O719        C720   1.277       .  A
C720        C812   1.480       .  S
C721        C765   1.399       .  S
Al722      O2123   1.941   1_455  S
C724        C852   1.476       .  S
C725        O726   1.254       .  A
C725        C747   1.518       .  S
O727        C742   1.288       .  A
O727       Al735   1.962       .  S
C728        O738   1.269       .  A
C728        O729   1.254       .  A
C728       C1326   1.479       .  S
O729       Al731   1.840       .  S
O730        C732   1.253       .  A
O730       Al731   1.949       .  S
Al731       O739   1.856       .  S
Al731       O741   1.898       .  S
Al731       O740   1.744       .  S
C732        O745   1.233       .  A
C732       C1381   1.462       .  S
O733        C743   1.288       .  A
O733       Al735   1.921       .  S
O734        C747   1.297       .  A
O734       Al744   2.057       .  S
Al735       O748   1.820       .  S
Al735       O745   1.868       .  S
Al735       O740   1.762       .  S
O736        C743   1.259       .  A
O736       Al744   1.817       .  S
O737        C746   1.277       .  A
O737       Al744   1.951       .  S
O738       Al744   1.974       .  S
O739        C746   1.260       .  A
O740       Al744   1.776       .  S
O741        C742   1.280       .  A
C742        C878   1.477       .  S
C743        C787   1.406       .  S
C746        C830   1.487       .  S
C747        O748   1.230       .  A
O749        C764   1.287       .  A
O749       Al757   1.961       .  S
C750        O760   1.270       .  A
C750        O751   1.252       .  A
C750        C996   1.482       .  S
O751       Al753   1.849       .  S
O752        C754   1.254       .  A
O752       Al753   1.955       .  S
Al753       O761   1.864       .  S
Al753       O763   1.900       .  S
Al753       O762   1.745       .  S
C754        O767   1.234       .  A
C754       C1051   1.469       .  S
O755        C765   1.286       .  A
O755       Al757   1.916       .  S
O756        C769   1.296       .  A
O756       Al766   2.047       .  S
Al757       O770   1.828       .  S
Al757       O767   1.873       .  S
Al757       O762   1.775       .  S
O758        C765   1.256       .  A
O758       Al766   1.807       .  S
O759        C768   1.273       .  A
O759       Al766   1.938       .  S
O760       Al766   1.971       .  S
O761        C768   1.261       .  A
O762       Al766   1.778       .  S
O763        C764   1.280       .  A
C764        C856   1.478       .  S
C768        C808   1.486       .  S
C769        O770   1.226       .  A
C769        C791   1.506       .  S
O771       Al779   2.000       .  S
C772        O782   1.285       .  A
C772        O773   1.268       .  A
C772       C1370   1.474       .  S
O773       Al775   1.847       .  S
O774        C776   1.273       .  A
O774       Al775   1.949       .  S
Al775       O784   1.672       .  S
C776        O789   1.263       .  A
C776       C1337   1.465       .  S
O777        C787   1.272       .  A
O777       Al779   1.937       .  S
O778        C791   1.363       .  A
O778       Al788   2.246       .  S
Al779       O792   1.786       .  S
Al779       O789   1.876       .  S
Al779       O784   1.587       .  S
O780        C787   1.236       .  A
O780       Al788   1.795       .  S
O781       Al788   1.940   1_545  S
O782       Al788   1.993       .  S
O783        C790   1.271       .  A
O784       Al788   1.786       .  S
O785        C786   1.273       .  A
C786        C834   1.503       .  S
C790        C874   1.482       .  S
C791        O792   1.294       .  A
O793        C808   1.281       .  A
O793       Al801   1.982       .  S
C794        O804   1.286       .  A
C794        O795   1.268       .  A
C794        C908   1.479       .  S
O795       Al797   1.855       .  S
O796        C798   1.316       .  A
O796       Al797   2.124       .  S
Al797       O805   1.868       .  S
Al797       O807   1.897       .  S
Al797       O806   1.762       .  S
C798        O811   1.298       .  A
C798        C963   1.461       .  S
O799        C809   1.270       .  A
O799       Al801   1.932       .  S
O800        C813   1.321       .  A
O800       Al810   2.074       .  S
Al801       O814   1.882       .  S
Al801       O811   1.795       .  S
Al801       O806   1.575       .  S
O802        C809   1.255       .  A
O802       Al810   1.836       .  S
O803        C812   1.289       .  A
O803       Al810   1.958       .  S
O804       Al810   2.003       .  S
O805        C812   1.268       .  A
O806       Al810   1.704       .  S
O807        C808   1.269       .  A
C809        C853   1.412       .  S
C813        O814   1.261       .  A
C813        C835   1.521       .  S
O815        C830   1.277       .  A
O815       Al823   1.968       .  S
C816        O826   1.284       .  A
C816        O817   1.268       .  A
C816       C1282   1.472       .  S
O817       Al819   1.845       .  S
O818        C820   1.272       .  A
O818       Al819   1.941       .  S
Al819       O827   1.873       .  S
Al819       O829   1.893       .  S
Al819       O828   1.675       .  S
C820        O833   1.266       .  A
C820       C1249   1.467       .  S
O821        C831   1.264       .  A
O821       Al823   1.912       .  S
O822        C835   1.364       .  A
O822       Al832   2.259       .  S
Al823       O836   1.789       .  S
Al823       O833   1.889       .  S
Al823       O828   1.594       .  S
O824        C831   1.243       .  A
O824       Al832   1.826       .  S
O825        C834   1.293       .  A
O825       Al832   1.970       .  S
O826       Al832   1.992       .  S
O827        C834   1.270       .  A
O828       Al832   1.784       .  S
O829        C830   1.273       .  A
C831        C875   1.405       .  S
C835        O836   1.294       .  A
O837        C852   1.280       .  A
C838        O848   1.286       .  A
C838        O839   1.265       .  A
C838        C952   1.480       .  S
O840        C842   1.318       .  A
Al841       O849   1.876       .  S
Al841       O851   1.889       .  S
C842        O855   1.299       .  A
C842        C919   1.465       .  S
O843        C853   1.271       .  A
O843       Al845   1.938       .  S
O844        C857   1.317       .  A
O844       Al854   2.057       .  S
Al845       O858   1.867       .  S
Al845       O855   1.796       .  S
Al845       O850   1.577       .  S
O846        C853   1.252       .  A
O846       Al854   1.821       .  S
O847        C856   1.287       .  A
O848       Al854   2.011       .  S
O849        C856   1.272       .  A
O850       Al854   1.708       .  S
O851        C852   1.266       .  A
C857        O858   1.259       .  A
C857        C879   1.507       .  S
O859       C2282   1.282       .  A
O859       Al867   1.990       .  S
C860        O870   1.286       .  A
C860        O861   1.265       .  A
C860       C1238   1.476       .  S
O861      Al2271   1.843       .  S
O862        C864   1.320       .  A
O862      Al2271   2.147       .  S
Al863      O2269   1.843       .  S
Al863      O2270   2.147       .  S
Al863       O871   1.882   1_655  S
Al863       O873   1.886   1_655  S
Al863      O2280   1.760       .  S
C864        O877   1.300       .  A
C864       C1293   1.472       .  S
O865        C875   1.271       .  A
O865       Al867   1.930       .  S
O866        C879   1.317       .  A
O866       Al876   2.054       .  S
Al867       O880   1.868       .  S
Al867       O877   1.802       .  S
Al867       O872   1.574       .  S
O868        C875   1.251       .  A
O868       Al876   1.813       .  S
O869        C878   1.287       .  A
O869      Al2284   1.941   1_455  S
O870       Al876   2.010       .  S
O871        C878   1.274       .  A
O872      Al2271   1.760       .  S
O872       Al876   1.709       .  S
O873        C874   1.266       .  A
C874       O2267   1.282       .  A
Al876      O2277   1.941       .  S
C879        O880   1.259       .  A
O881        C896   1.265       .  A
O881       Al889   1.879       .  S
C882        O892   1.234       .  A
C882        O883   1.287       .  A
C882        C926   1.398       .  S
O883       Al885   1.950       .  S
O884        C886   1.247       .  A
O884       Al885   1.836       .  S
Al885       O893   1.834       .  S
Al885       O895   1.936       .  S
Al885       O894   1.769       .  S
C886        O899   1.255       .  A
C886       C1212   1.476   1_554  S
O887        C897   1.260       .  A
O887       Al889   1.893       .  S
O888        C901   1.295       .  A
O888       Al898   1.937       .  S
Al889       O902   1.835       .  S
Al889       O899   1.942       .  S
Al889       O894   1.760       .  S
O890        C897   1.263       .  A
O890       Al898   1.944       .  S
O891        C900   1.285       .  A
O891       Al898   2.126       .  S
O892       Al898   1.762       .  S
O893        C900   1.236       .  A
O894       Al898   1.816       .  S
O895        C896   1.262       .  A
C896       C1033   1.477       .  S
C897       C1172   1.467   1_554  S
C900        C922   1.567       .  S
C901        O902   1.261       .  A
C901        C984   1.476       .  S
O903        C918   1.262       .  A
O903       Al911   1.861       .  S
C904        O914   1.237       .  A
C904        O905   1.288       .  A
C904        C948   1.397       .  S
O905       Al907   1.950       .  S
O906        C908   1.247       .  A
O906       Al907   1.844       .  S
Al907       O915   1.834       .  S
Al907       O917   1.937       .  S
Al907       O916   1.770       .  S
C908        O921   1.256       .  A
O909        C919   1.257       .  A
O909      Al2319   1.872       .  S
O910        C923   1.296       .  A
O910      Al2328   1.937   1_455  S
Al911      O2317   1.872   1_455  S
Al911       O924   1.846       .  S
Al911      O2329   1.943   1_455  S
Al911      O2324   1.757   1_455  S
O912        C919   1.263       .  A
O912       Al920   1.953       .  S
O913        C922   1.283       .  A
O913       Al920   2.124       .  S
O914       Al920   1.764       .  S
O915        C922   1.236       .  A
O916      Al2319   1.757       .  S
O916       Al920   1.813       .  S
O917       C2326   1.262       .  A
C918       O2325   1.262       .  A
C918       C1011   1.475       .  S
Al920      O2318   1.937       .  S
O921      Al2319   1.943       .  S
C923        O924   1.262       .  A
C923       C1050   1.474       .  S
O925        C940   1.265       .  A
O925       Al933   1.871       .  S
C926        O936   1.237       .  A
C926        O927   1.290       .  A
O927       Al929   1.960       .  S
O928        C930   1.245       .  A
O928       Al929   1.836       .  S
Al929       O937   1.831       .  S
Al929       O938   1.770       .  S
C930        O943   1.256       .  A
C930       C1168   1.472   1_554  S
O931        C941   1.259       .  A
O932        C945   1.296       .  A
Al933       O946   1.851       .  S
O934        C941   1.263       .  A
O934       Al942   1.953       .  S
O935        C944   1.282       .  A
O935       Al942   2.131       .  S
O936       Al942   1.762       .  S
O937        C944   1.234       .  A
O938       Al942   1.814       .  S
O939        C940   1.260       .  A
C940        C989   1.475       .  S
C941       C1216   1.472   1_554  S
C944        C966   1.571       .  S
C945        O946   1.265       .  A
C945       C1028   1.473       .  S
O947        C962   1.262       .  A
O947       Al955   1.866       .  S
C948        O958   1.234       .  A
C948        O949   1.285       .  A
O949       Al951   1.949       .  S
O950        C952   1.247       .  A
O950       Al951   1.839       .  S
Al951       O959   1.834       .  S
Al951       O961   1.944       .  S
Al951       O960   1.771       .  S
C952        O965   1.256       .  A
O953        C963   1.255       .  A
O953       Al955   1.867       .  S
O954        C967   1.295       .  A
O954       Al964   1.938       .  S
Al955       O968   1.841       .  S
Al955       O965   1.944       .  S
Al955       O960   1.757       .  S
O956        C963   1.263       .  A
O956       Al964   1.948       .  S
O957        C966   1.285       .  A
O957       Al964   2.130       .  S
O958       Al964   1.764       .  S
O959        C966   1.238       .  A
O960       Al964   1.817       .  S
O961        C962   1.263       .  A
C962       C1055   1.478       .  S
C967        O968   1.262       .  A
C967       C1006   1.480       .  S
O969        C984   1.266       .  A
O969       Al977   1.875       .  S
C970        O980   1.234       .  A
C970        O971   1.289       .  A
C970       C1014   1.390       .  S
O971       Al973   1.945       .  S
O972        C974   1.246       .  A
O972       Al973   1.845       .  S
Al973       O981   1.831       .  S
Al973       O983   1.931       .  S
Al973       O982   1.768       .  S
C974        O987   1.256       .  A
C974       C1080   1.479   1_554  S
O975        C985   1.260       .  A
O975       Al977   1.891       .  S
O976        C989   1.296       .  A
O976       Al986   1.937       .  S
Al977       O990   1.841       .  S
Al977       O987   1.941       .  S
Al977       O982   1.749       .  S
O978        C985   1.261       .  A
O978       Al986   1.939       .  S
O979        C988   1.280       .  A
O979       Al986   2.118       .  S
O980       Al986   1.758       .  S
O981        C988   1.234       .  A
O982       Al986   1.819       .  S
O983        C984   1.260       .  A
C985       C1128   1.465   1_554  S
C988       C1010   1.564       .  S
C989        O990   1.264       .  A
O991       C1006   1.266       .  A
O991       Al999   1.877       .  S
C992       O1002   1.233       .  A
C992        O993   1.289       .  A
C992       C1036   1.389       .  S
O993       Al995   1.944       .  S
O994        C996   1.248       .  A
O994       Al995   1.848       .  S
Al995      O1003   1.830       .  S
Al995      O1005   1.937       .  S
Al995      O1004   1.765       .  S
C996       O1009   1.255       .  A
O997       C1007   1.262       .  A
O997       Al999   1.879       .  S
O998       C1011   1.295       .  A
O998      Al1008   1.930       .  S
Al999      O1012   1.842       .  S
Al999      O1009   1.946       .  S
Al999      O1004   1.748       .  S
O1000      C1007   1.253       .  A
O1000     Al1008   1.912       .  S
O1001      C1010   1.280       .  A
O1001     Al1008   2.110       .  S
O1002     Al1008   1.756       .  S
O1003      C1010   1.234       .  A
O1004     Al1008   1.824       .  S
O1005      C1006   1.262       .  A
C1011      O1012   1.264       .  A
O1013      C1028   1.271       .  A
O1013     Al1021   1.896       .  S
C1014      O1024   1.235       .  A
C1014      O1015   1.291       .  A
O1015     Al1017   1.955       .  S
O1016      C1018   1.245       .  A
O1016     Al1017   1.843       .  S
Al1017     O1025   1.827       .  S
Al1017     O2435   1.915   1_455  S
Al1017     O1026   1.766       .  S
C1018      O1031   1.255       .  A
C1018      C1124   1.474   1_554  S
O1019      C1029   1.265       .  A
O1019     Al2429   1.910   1_455  S
O1020      C1033   1.300       .  A
O1020     Al2438   1.941       .  S
Al1021     O2427   1.910       .  S
Al1021     O1034   1.847       .  S
Al1021     O2439   1.943       .  S
Al1021     O2434   1.746       .  S
O1022      C1029   1.256       .  A
O1022     Al1030   1.920       .  S
O1023      C1032   1.276       .  A
O1023     Al1030   2.104       .  S
O1024     Al1030   1.745       .  S
O1025      C1032   1.232       .  A
O1026     Al2429   1.746   1_455  S
O1026     Al1030   1.820       .  S
O1027      C1028   1.259       .  A
O1027     Al2425   1.915       .  S
C1029      C1084   1.462   1_554  S
Al1030     O2428   1.941   1_455  S
O1031     Al2429   1.943   1_455  S
C1032      C1054   1.563       .  S
C1033      O1034   1.265       .  A
O1035      C1050   1.272       .  A
C1036      O1046   1.235       .  A
C1036      O1037   1.291       .  A
O1037     Al1039   1.957       .  S
O1038      C1040   1.246       .  A
O1038     Al1039   1.848       .  S
Al1039     O1047   1.828       .  S
Al1039     O1049   1.917       .  S
Al1039     O1048   1.769       .  S
C1040      O1053   1.255       .  A
O1041      C1051   1.265       .  A
O1041     Al1043   1.917       .  S
O1042     Al1052   1.940       .  S
Al1043     O1053   1.938       .  S
Al1043     O1048   1.744       .  S
O1044      C1051   1.255       .  A
O1044     Al1052   1.922       .  S
O1045      C1054   1.276       .  A
O1045     Al1052   2.103       .  S
O1046     Al1052   1.742       .  S
O1047      C1054   1.233       .  A
O1048     Al1052   1.818       .  S
C1055      O1056   1.266       .  A
O1057      C1072   1.278       .  A
O1057     Al2473   2.013       .  S
C1058      O1068   1.285       .  A
C1058      O1059   1.266       .  A
C1058      C1392   1.472       .  S
O1059     Al2469   1.843   1_455  S
O1060      C1062   1.285       .  A
O1060     Al2469   1.988   1_455  S
Al1061     O2467   1.843       .  S
Al1061     O2468   1.988       .  S
Al1061     O1069   1.865       .  S
Al1061     O1071   1.904       .  S
Al1061     O2478   1.703       .  S
C1062      O1075   1.252       .  A
C1062      C1359   1.437       .  S
O1063      C1073   1.280       .  A
O1063     Al1065   1.992       .  S
O1064      C1077   1.340       .  A
O1064     Al1074   2.188       .  S
Al1065     O2465   2.013   1_455  S
Al1065     O1078   1.824       .  S
Al1065     O1075   1.836       .  S
Al1065     O1070   1.781       .  S
O1066      C1073   1.241       .  A
O1066     Al1074   1.788       .  S
O1067      C1076   1.288       .  A
O1067     Al2482   1.941       .  S
O1068     Al1074   1.996       .  S
O1069      C1076   1.270       .  A
O1070     Al2469   1.703   1_455  S
O1070     Al1074   1.718       .  S
O1071      C1072   1.277       .  A
C1072      C1164   1.480       .  S
C1073      C1117   1.399       .  S
Al1074     O2475   1.941   1_455  S
C1076      C1204   1.476       .  S
C1077      O1078   1.254       .  A
C1077      C1099   1.518       .  S
O1079      C1094   1.288       .  A
O1079     Al1087   1.962       .  S
C1080      O1090   1.269       .  A
C1080      O1081   1.254       .  A
O1081     Al1083   1.840       .  S
O1082      C1084   1.253   1_554  A
O1082     Al1083   1.949   1_554  S
Al1083     O1091   1.856       .  S
Al1083     O1093   1.898       .  S
Al1083     O1092   1.744       .  S
C1084      O1097   1.233       .  A
O1085      C1095   1.288       .  A
O1085     Al1087   1.921       .  S
O1086      C1099   1.297       .  A
O1086     Al1096   2.057       .  S
Al1087     O1100   1.820       .  S
Al1087     O1097   1.868       .  S
Al1087     O1092   1.762       .  S
O1088      C1095   1.259       .  A
O1088     Al1096   1.817       .  S
O1089      C1098   1.277       .  A
O1089     Al1096   1.951       .  S
O1090     Al1096   1.974       .  S
O1091      C1098   1.260       .  A
O1092     Al1096   1.776       .  S
O1093      C1094   1.280       .  A
C1094      C1230   1.477       .  S
C1095      C1139   1.406       .  S
C1098      C1182   1.487       .  S
C1099      O1100   1.230       .  A
O1101      C1116   1.287       .  A
O1101     Al1109   1.961       .  S
C1102      O1112   1.270       .  A
C1102      O1103   1.252       .  A
C1102      C1348   1.482       .  S
O1103     Al1105   1.849       .  S
O1104      C1106   1.254       .  A
O1104     Al1105   1.955       .  S
Al1105     O1113   1.864       .  S
Al1105     O1115   1.900       .  S
Al1105     O1114   1.745       .  S
C1106      O1119   1.234       .  A
C1106      C1403   1.469       .  S
O1107      C1117   1.286       .  A
O1107     Al1109   1.916       .  S
O1108      C1121   1.296       .  A
O1108     Al1118   2.047       .  S
Al1109     O1122   1.828       .  S
Al1109     O1119   1.873       .  S
Al1109     O1114   1.775       .  S
O1110      C1117   1.256       .  A
O1110     Al1118   1.807       .  S
O1111      C1120   1.273       .  A
O1111     Al1118   1.938       .  S
O1112     Al1118   1.971       .  S
O1113      C1120   1.261       .  A
O1114     Al1118   1.778       .  S
O1115      C1116   1.280       .  A
C1116      C1208   1.478       .  S
C1120      C1160   1.486       .  S
C1121      O1122   1.226       .  A
C1121      C1143   1.506       .  S
O1123     Al1131   2.000       .  S
C1124      O1134   1.285       .  A
C1124      O1125   1.268       .  A
O1125     Al1127   1.847       .  S
O1126      C1128   1.273   1_554  A
O1126     Al1127   1.949   1_554  S
Al1127     O1136   1.672       .  S
C1128      O1141   1.263       .  A
O1129      C1139   1.272       .  A
O1129     Al1131   1.937       .  S
O1130      C1143   1.363       .  A
O1130     Al1140   2.246       .  S
Al1131     O1144   1.786       .  S
Al1131     O1141   1.876       .  S
Al1131     O1136   1.587       .  S
O1132      C1139   1.236       .  A
O1132     Al1140   1.794       .  S
O1133     Al1140   1.940   1_545  S
O1134     Al1140   1.993       .  S
O1135      C1142   1.271       .  A
O1136     Al1140   1.786       .  S
O1137      C1138   1.273       .  A
C1138      C1186   1.503       .  S
C1142      C1226   1.482       .  S
C1143      O1144   1.294       .  A
O1145      C1160   1.281       .  A
O1145     Al1153   1.982       .  S
C1146      O1156   1.286       .  A
C1146      O1147   1.268       .  A
C1146      C1260   1.479       .  S
O1147     Al1149   1.855       .  S
O1148      C1150   1.316       .  A
O1148     Al1149   2.124       .  S
Al1149     O1157   1.868       .  S
Al1149     O1159   1.897       .  S
Al1149     O1158   1.762       .  S
C1150      O1163   1.298       .  A
C1150      C1315   1.461       .  S
O1151      C1161   1.270       .  A
O1151     Al1153   1.932       .  S
O1152      C1165   1.321       .  A
O1152     Al1162   2.074       .  S
Al1153     O1166   1.882       .  S
Al1153     O1163   1.795       .  S
Al1153     O1158   1.575       .  S
O1154      C1161   1.255       .  A
O1154     Al1162   1.836       .  S
O1155      C1164   1.289       .  A
O1155     Al1162   1.958       .  S
O1156     Al1162   2.003       .  S
O1157      C1164   1.268       .  A
O1158     Al1162   1.704       .  S
O1159      C1160   1.269       .  A
C1161      C1205   1.412       .  S
C1165      O1166   1.261       .  A
C1165      C1187   1.521       .  S
O1167      C1182   1.277       .  A
O1167     Al1175   1.968       .  S
C1168      O1178   1.284       .  A
C1168      O1169   1.268       .  A
O1169     Al1171   1.845       .  S
O1170      C1172   1.272   1_554  A
O1170     Al1171   1.941   1_554  S
Al1171     O1179   1.873       .  S
Al1171     O1181   1.893       .  S
Al1171     O1180   1.675       .  S
C1172      O1185   1.266       .  A
O1173      C1183   1.264       .  A
O1173     Al1175   1.912       .  S
O1174      C1187   1.364       .  A
O1174     Al1184   2.259       .  S
Al1175     O1188   1.789       .  S
Al1175     O1185   1.889       .  S
Al1175     O1180   1.594       .  S
O1176      C1183   1.243       .  A
O1176     Al1184   1.826       .  S
O1177      C1186   1.293       .  A
O1177     Al1184   1.970       .  S
O1178     Al1184   1.992       .  S
O1179      C1186   1.270       .  A
O1180     Al1184   1.784       .  S
O1181      C1182   1.273       .  A
C1183      C1227   1.405       .  S
C1187      O1188   1.294       .  A
O1189      C1204   1.280       .  A
C1190      O1200   1.286       .  A
C1190      O1191   1.265       .  A
C1190      C1304   1.480       .  S
O1192      C1194   1.318       .  A
Al1193     O1201   1.876       .  S
Al1193     O1203   1.889       .  S
C1194      O1207   1.299       .  A
C1194      C1271   1.465       .  S
O1195      C1205   1.271       .  A
O1195     Al1197   1.938       .  S
O1196      C1209   1.317       .  A
O1196     Al1206   2.057       .  S
Al1197     O1210   1.867       .  S
Al1197     O1207   1.796       .  S
Al1197     O1202   1.577       .  S
O1198      C1205   1.252       .  A
O1198     Al1206   1.821       .  S
O1199      C1208   1.287       .  A
O1200     Al1206   2.011       .  S
O1201      C1208   1.272       .  A
O1202     Al1206   1.708       .  S
O1203      C1204   1.266       .  A
C1209      O1210   1.259       .  A
C1209      C1231   1.507       .  S
O1211      C2634   1.282       .  A
O1211     Al1219   1.990       .  S
C1212      O1222   1.286       .  A
C1212      O1213   1.265       .  A
O1213     Al2623   1.843       .  S
O1214      C1216   1.320   1_554  A
O1214     Al2623   2.147   1_554  S
Al1215     O2621   1.843       .  S
Al1215     O2622   2.147   1_556  S
Al1215     O1223   1.882   1_655  S
Al1215     O1225   1.886   1_655  S
Al1215     O2632   1.760       .  S
C1216      O1229   1.300       .  A
O1217      C1227   1.271       .  A
O1217     Al1219   1.930       .  S
O1218      C1231   1.317       .  A
O1218     Al1228   2.054       .  S
Al1219     O1232   1.868       .  S
Al1219     O1229   1.802       .  S
Al1219     O1224   1.574       .  S
O1220      C1227   1.251       .  A
O1220     Al1228   1.813       .  S
O1221      C1230   1.287       .  A
O1221     Al2636   1.941   1_455  S
O1222     Al1228   2.010       .  S
O1223      C1230   1.274       .  A
O1224     Al2623   1.760       .  S
O1224     Al1228   1.709       .  S
O1225      C1226   1.266       .  A
C1226      O2619   1.282       .  A
Al1228     O2629   1.941       .  S
C1231      O1232   1.259       .  A
O1233      C1248   1.265       .  A
O1233     Al1241   1.879       .  S
C1234      O1244   1.234       .  A
C1234      O1235   1.287       .  A
C1234      C1278   1.398       .  S
O1235     Al1237   1.950       .  S
O1236      C1238   1.247       .  A
O1236     Al1237   1.835       .  S
Al1237     O1245   1.834       .  S
Al1237     O1247   1.936       .  S
Al1237     O1246   1.769       .  S
C1238      O1251   1.254       .  A
O1239      C1249   1.260       .  A
O1239     Al1241   1.893       .  S
O1240      C1253   1.295       .  A
O1240     Al1250   1.937       .  S
Al1241     O1254   1.835       .  S
Al1241     O1251   1.942       .  S
Al1241     O1246   1.760       .  S
O1242      C1249   1.263       .  A
O1242     Al1250   1.944       .  S
O1243      C1252   1.285       .  A
O1243     Al1250   2.126       .  S
O1244     Al1250   1.762       .  S
O1245      C1252   1.236       .  A
O1246     Al1250   1.816       .  S
O1247      C1248   1.262       .  A
C1248      C1385   1.477       .  S
C1252      C1274   1.567       .  S
C1253      O1254   1.261       .  A
C1253      C1336   1.476       .  S
O1255      C1270   1.262       .  A
O1255     Al1263   1.861       .  S
C1256      O1266   1.237       .  A
C1256      O1257   1.288       .  A
C1256      C1300   1.397       .  S
O1257     Al1259   1.950       .  S
O1258      C1260   1.247       .  A
O1258     Al1259   1.844       .  S
Al1259     O1267   1.834       .  S
Al1259     O1269   1.937       .  S
Al1259     O1268   1.770       .  S
C1260      O1273   1.256       .  A
O1261      C1271   1.257       .  A
O1261     Al2671   1.872       .  S
O1262      C1275   1.296       .  A
O1262     Al2680   1.937   1_455  S
Al1263     O2669   1.872   1_455  S
Al1263     O1276   1.846       .  S
Al1263     O2681   1.943   1_455  S
Al1263     O2676   1.757   1_455  S
O1264      C1271   1.263       .  A
O1264     Al1272   1.953       .  S
O1265      C1274   1.283       .  A
O1265     Al1272   2.124       .  S
O1266     Al1272   1.764       .  S
O1267      C1274   1.236       .  A
O1268     Al2671   1.757       .  S
O1268     Al1272   1.813       .  S
O1269      C2678   1.262       .  A
C1270      O2677   1.262       .  A
C1270      C1363   1.475       .  S
Al1272     O2670   1.937       .  S
O1273     Al2671   1.943       .  S
C1275      O1276   1.262       .  A
C1275      C1402   1.474       .  S
O1277      C1292   1.265       .  A
O1277     Al1285   1.871       .  S
C1278      O1288   1.237       .  A
C1278      O1279   1.290       .  A
O1279     Al1281   1.960       .  S
O1280      C1282   1.245       .  A
O1280     Al1281   1.836       .  S
Al1281     O1289   1.831       .  S
Al1281     O1290   1.770       .  S
C1282      O1295   1.256       .  A
O1283      C1293   1.259       .  A
O1284      C1297   1.296       .  A
Al1285     O1298   1.851       .  S
O1286      C1293   1.263       .  A
O1286     Al1294   1.953       .  S
O1287      C1296   1.282       .  A
O1287     Al1294   2.131       .  S
O1288     Al1294   1.762       .  S
O1289      C1296   1.234       .  A
O1290     Al1294   1.814       .  S
O1291      C1292   1.260       .  A
C1292      C1341   1.475       .  S
C1296      C1318   1.571       .  S
C1297      O1298   1.265       .  A
C1297      C1380   1.473       .  S
O1299      C1314   1.262       .  A
O1299     Al1307   1.866       .  S
C1300      O1310   1.234       .  A
C1300      O1301   1.285       .  A
O1301     Al1303   1.949       .  S
O1302      C1304   1.247       .  A
O1302     Al1303   1.839       .  S
Al1303     O1311   1.834       .  S
Al1303     O1313   1.944       .  S
Al1303     O1312   1.771       .  S
C1304      O1317   1.256       .  A
O1305      C1315   1.255       .  A
O1305     Al1307   1.867       .  S
O1306      C1319   1.295       .  A
O1306     Al1316   1.938       .  S
Al1307     O1320   1.841       .  S
Al1307     O1317   1.944       .  S
Al1307     O1312   1.757       .  S
O1308      C1315   1.263       .  A
O1308     Al1316   1.948       .  S
O1309      C1318   1.285       .  A
O1309     Al1316   2.130       .  S
O1310     Al1316   1.764       .  S
O1311      C1318   1.238       .  A
O1312     Al1316   1.817       .  S
O1313      C1314   1.263       .  A
C1314      C1407   1.478       .  S
C1319      O1320   1.262       .  A
C1319      C1358   1.480       .  S
O1321      C1336   1.266       .  A
O1321     Al1329   1.875       .  S
C1322      O1332   1.234       .  A
C1322      O1323   1.289       .  A
C1322      C1366   1.390       .  S
O1323     Al1325   1.945       .  S
O1324      C1326   1.246       .  A
O1324     Al1325   1.845       .  S
Al1325     O1333   1.831       .  S
Al1325     O1335   1.931       .  S
Al1325     O1334   1.768       .  S
C1326      O1339   1.256       .  A
O1327      C1337   1.260       .  A
O1327     Al1329   1.891       .  S
O1328      C1341   1.296       .  A
O1328     Al1338   1.937       .  S
Al1329     O1342   1.841       .  S
Al1329     O1339   1.941       .  S
Al1329     O1334   1.749       .  S
O1330      C1337   1.261       .  A
O1330     Al1338   1.939       .  S
O1331      C1340   1.280       .  A
O1331     Al1338   2.118       .  S
O1332     Al1338   1.758       .  S
O1333      C1340   1.235       .  A
O1334     Al1338   1.819       .  S
O1335      C1336   1.260       .  A
C1340      C1362   1.564       .  S
C1341      O1342   1.264       .  A
O1343      C1358   1.266       .  A
O1343     Al1351   1.877       .  S
C1344      O1354   1.233       .  A
C1344      O1345   1.289       .  A
C1344      C1388   1.389       .  S
O1345     Al1347   1.944       .  S
O1346      C1348   1.248       .  A
O1346     Al1347   1.848       .  S
Al1347     O1355   1.830       .  S
Al1347     O1357   1.937       .  S
Al1347     O1356   1.765       .  S
C1348      O1361   1.255       .  A
O1349      C1359   1.262       .  A
O1349     Al1351   1.879       .  S
O1350      C1363   1.295       .  A
O1350     Al1360   1.930       .  S
Al1351     O1364   1.842       .  S
Al1351     O1361   1.946       .  S
Al1351     O1356   1.748       .  S
O1352      C1359   1.253       .  A
O1352     Al1360   1.912       .  S
O1353      C1362   1.280       .  A
O1353     Al1360   2.110       .  S
O1354     Al1360   1.756       .  S
O1355      C1362   1.234       .  A
O1356     Al1360   1.824       .  S
O1357      C1358   1.262       .  A
C1363      O1364   1.264       .  A
O1365      C1380   1.271       .  A
O1365     Al1373   1.896       .  S
C1366      O1376   1.235       .  A
C1366      O1367   1.291       .  A
O1367     Al1369   1.955       .  S
O1368      C1370   1.245       .  A
O1368     Al1369   1.843       .  S
Al1369     O1377   1.827       .  S
Al1369     O2787   1.915   1_455  S
Al1369     O1378   1.766       .  S
C1370      O1383   1.255       .  A
O1371      C1381   1.265       .  A
O1371     Al2781   1.910   1_455  S
O1372      C1385   1.300       .  A
O1372     Al2790   1.941       .  S
Al1373     O2779   1.910       .  S
Al1373     O1386   1.847       .  S
Al1373     O2791   1.943       .  S
Al1373     O2786   1.746       .  S
O1374      C1381   1.256       .  A
O1374     Al1382   1.920       .  S
O1375      C1384   1.276       .  A
O1375     Al1382   2.104       .  S
O1376     Al1382   1.745       .  S
O1377      C1384   1.232       .  A
O1378     Al2781   1.746   1_455  S
O1378     Al1382   1.820       .  S
O1379      C1380   1.259       .  A
O1379     Al2777   1.915       .  S
Al1382     O2780   1.941   1_455  S
O1383     Al2781   1.943   1_455  S
C1384      C1406   1.563       .  S
C1385      O1386   1.265       .  A
O1387      C1402   1.272       .  A
C1388      O1398   1.235       .  A
C1388      O1389   1.291       .  A
O1389     Al1391   1.957       .  S
O1390      C1392   1.246       .  A
O1390     Al1391   1.848       .  S
Al1391     O1399   1.828       .  S
Al1391     O1401   1.916       .  S
Al1391     O1400   1.769       .  S
C1392      O1405   1.255       .  A
O1393      C1403   1.265       .  A
O1393     Al1395   1.917       .  S
O1394     Al1404   1.940       .  S
Al1395     O1405   1.938       .  S
Al1395     O1400   1.744       .  S
O1396      C1403   1.255       .  A
O1396     Al1404   1.922       .  S
O1397      C1406   1.275       .  A
O1397     Al1404   2.103       .  S
O1398     Al1404   1.742       .  S
O1399      C1406   1.233       .  A
O1400     Al1404   1.818       .  S
C1407      O1408   1.266       .  A
O1409      C1424   1.278       .  A
C1410      O1420   1.285       .  A
C1410      O1411   1.266       .  A
C1410      C1744   1.472       .  S
O1412      C1414   1.285       .  A
Al1413     O1421   1.865       .  S
Al1413     O1423   1.904       .  S
C1414      O1427   1.252       .  A
C1414      C1711   1.437       .  S
O1415      C1425   1.280       .  A
O1415     Al1417   1.992       .  S
O1416      C1429   1.340       .  A
O1416     Al1426   2.188       .  S
Al1417     O1430   1.824       .  S
Al1417     O1427   1.836       .  S
Al1417     O1422   1.781       .  S
O1418      C1425   1.241       .  A
O1418     Al1426   1.788       .  S
O1419      C1428   1.288       .  A
O1420     Al1426   1.996       .  S
O1421      C1428   1.270       .  A
O1422     Al1426   1.718       .  S
O1423      C1424   1.277       .  A
C1424      C1516   1.480       .  S
C1425      C1469   1.399       .  S
C1428      C1556   1.476       .  S
C1429      O1430   1.254       .  A
C1429      C1451   1.518       .  S
O1431      C1446   1.288       .  A
O1431     Al1439   1.962       .  S
C1432      O1442   1.269       .  A
C1432      O1433   1.254       .  A
C1432      C2030   1.479       .  S
O1433     Al1435   1.840       .  S
O1434      C1436   1.253       .  A
O1434     Al1435   1.949       .  S
Al1435     O1443   1.856       .  S
Al1435     O1445   1.898       .  S
Al1435     O1444   1.744       .  S
C1436      O1449   1.233       .  A
C1436      C2085   1.462       .  S
O1437      C1447   1.288       .  A
O1437     Al1439   1.921       .  S
O1438      C1451   1.297       .  A
O1438     Al1448   2.057       .  S
Al1439     O1452   1.820       .  S
Al1439     O1449   1.868       .  S
Al1439     O1444   1.762       .  S
O1440      C1447   1.259       .  A
O1440     Al1448   1.817       .  S
O1441      C1450   1.277       .  A
O1441     Al1448   1.951       .  S
O1442     Al1448   1.973       .  S
O1443      C1450   1.260       .  A
O1444     Al1448   1.776       .  S
O1445      C1446   1.280       .  A
C1446      C1582   1.477       .  S
C1447      C1491   1.406       .  S
C1450      C1534   1.487       .  S
C1451      O1452   1.230       .  A
O1453      C1468   1.287       .  A
O1453     Al1461   1.961       .  S
C1454      O1464   1.270       .  A
C1454      O1455   1.252       .  A
C1454      C1700   1.482       .  S
O1455     Al1457   1.850       .  S
O1456      C1458   1.254       .  A
O1456     Al1457   1.955       .  S
Al1457     O1465   1.864       .  S
Al1457     O1467   1.900       .  S
Al1457     O1466   1.746       .  S
C1458      O1471   1.234       .  A
C1458      C1755   1.469       .  S
O1459      C1469   1.286       .  A
O1459     Al1461   1.916       .  S
O1460      C1473   1.296       .  A
O1460     Al1470   2.047       .  S
Al1461     O1474   1.828       .  S
Al1461     O1471   1.873       .  S
Al1461     O1466   1.775       .  S
O1462      C1469   1.256       .  A
O1462     Al1470   1.807       .  S
O1463      C1472   1.273       .  A
O1463     Al1470   1.938       .  S
O1464     Al1470   1.971       .  S
O1465      C1472   1.261       .  A
O1466     Al1470   1.778       .  S
O1467      C1468   1.280       .  A
C1468      C1560   1.478       .  S
C1472      C1512   1.486       .  S
C1473      O1474   1.226       .  A
C1473      C1495   1.506       .  S
O1475      C2194   1.284       .  A
O1475     Al1483   2.000       .  S
C1476      O1486   1.285       .  A
C1476      O1477   1.268       .  A
C1476      C2074   1.474       .  S
O1477     Al1479   1.847       .  S
O1478      C1480   1.273       .  A
O1478     Al1479   1.949       .  S
Al1479     O2191   1.875       .  S
Al1479     O2193   1.890       .  S
Al1479     O1488   1.672       .  S
C1480      O1493   1.263       .  A
C1480      C2041   1.465       .  S
O1481      C1491   1.272       .  A
O1481     Al1483   1.937       .  S
O1482      C1495   1.363       .  A
O1482     Al1492   2.246       .  S
Al1483     O1496   1.786       .  S
Al1483     O1493   1.876       .  S
Al1483     O1488   1.587       .  S
O1484      C1491   1.236       .  A
O1484     Al1492   1.794       .  S
O1485      C2198   1.287       .  A
O1485     Al1492   1.940       .  S
O1486     Al1492   1.993       .  S
O1487      C1494   1.271       .  A
O1487     Al2183   1.875   1_545  S
O1488     Al1492   1.786       .  S
O1489      C1490   1.273       .  A
O1489     Al2183   1.890   1_545  S
C1490      O2179   1.283   1_545  A
C1490      C1538   1.503       .  S
C1494      O2189   1.287       .  A
C1494      C1578   1.482       .  S
C1495      O1496   1.294       .  A
O1497      C1512   1.281       .  A
O1497     Al1505   1.982       .  S
C1498      O1508   1.286       .  A
C1498      O1499   1.268       .  A
C1498      C1612   1.479       .  S
O1499     Al1501   1.855       .  S
O1500      C1502   1.316       .  A
O1500     Al1501   2.124       .  S
Al1501     O1509   1.868       .  S
Al1501     O1511   1.897       .  S
Al1501     O1510   1.762       .  S
C1502      O1515   1.298       .  A
C1502      C1667   1.461       .  S
O1503      C1513   1.270       .  A
O1503     Al1505   1.932       .  S
O1504      C1517   1.321       .  A
O1504     Al1514   2.074       .  S
Al1505     O1518   1.882       .  S
Al1505     O1515   1.795       .  S
Al1505     O1510   1.575       .  S
O1506      C1513   1.255       .  A
O1506     Al1514   1.836       .  S
O1507      C1516   1.289       .  A
O1507     Al1514   1.958       .  S
O1508     Al1514   2.003       .  S
O1509      C1516   1.268       .  A
O1510     Al1514   1.704       .  S
O1511      C1512   1.269       .  A
C1513      C1557   1.412       .  S
C1517      O1518   1.261       .  A
C1517      C1539   1.521       .  S
O1519      C1534   1.277       .  A
O1519     Al1527   1.968       .  S
C1520      O1530   1.284       .  A
C1520      O1521   1.268       .  A
C1520      C1986   1.472       .  S
O1521     Al1523   1.845       .  S
O1522      C1524   1.272       .  A
O1522     Al1523   1.941       .  S
Al1523     O1531   1.873       .  S
Al1523     O1533   1.893       .  S
Al1523     O1532   1.675       .  S
C1524      O1537   1.266       .  A
C1524      C1953   1.467       .  S
O1525      C1535   1.264       .  A
O1525     Al1527   1.912       .  S
O1526      C1539   1.364       .  A
O1526     Al1536   2.259       .  S
Al1527     O1540   1.789       .  S
Al1527     O1537   1.889       .  S
Al1527     O1532   1.594       .  S
O1528      C1535   1.243       .  A
O1528     Al1536   1.826       .  S
O1529      C1538   1.293       .  A
O1529     Al1536   1.970       .  S
O1530     Al1536   1.992       .  S
O1531      C1538   1.270       .  A
O1532     Al1536   1.784       .  S
O1533      C1534   1.273       .  A
C1535      C1579   1.405       .  S
C1539      O1540   1.294       .  A
O1541      C1556   1.280       .  A
O1541     Al2253   1.984       .  S
C1542      O1552   1.286       .  A
C1542      O1543   1.265       .  A
C1542      C1656   1.480       .  S
O1543     Al2249   1.848   1_545  S
O1544      C1546   1.318       .  A
O1544     Al2249   2.136   1_545  S
Al1545     O2247   1.848       .  S
Al1545     O2248   2.136       .  S
Al1545     O1553   1.876       .  S
Al1545     O1555   1.889       .  S
Al1545     O2258   1.760       .  S
C1546      O1559   1.299       .  A
C1546      C1623   1.465       .  S
O1547      C1557   1.271       .  A
O1547     Al1549   1.938       .  S
O1548      C1561   1.317       .  A
O1548     Al1558   2.057       .  S
Al1549     O2245   1.984   1_545  S
Al1549     O1562   1.867       .  S
Al1549     O1559   1.796       .  S
Al1549     O1554   1.577       .  S
O1550      C1557   1.252       .  A
O1550     Al1558   1.821       .  S
O1551      C1560   1.287       .  A
O1551     Al2262   1.945       .  S
O1552     Al1558   2.011       .  S
O1553      C1560   1.272       .  A
O1554     Al2249   1.760   1_545  S
O1554     Al1558   1.708       .  S
O1555      C1556   1.266       .  A
Al1558     O2255   1.945   1_545  S
C1561      O1562   1.259       .  A
C1561      C1583   1.507       .  S
O1563     Al1571   1.990   1_455  S
C1564      O1574   1.286       .  A
C1564      O1565   1.265       .  A
C1564      C1942   1.476       .  S
O1566      C1568   1.320       .  A
Al1567     O1575   1.882       .  S
Al1567     O1577   1.886       .  S
C1568      O1581   1.300       .  A
C1568      C1997   1.472       .  S
O1569      C1579   1.271       .  A
O1569     Al1571   1.930       .  S
O1570      C1583   1.317       .  A
O1570     Al1580   2.054       .  S
Al1571     O1584   1.868       .  S
Al1571     O1581   1.802       .  S
Al1571     O1576   1.574       .  S
O1572      C1579   1.251       .  A
O1572     Al1580   1.813       .  S
O1573      C1582   1.287       .  A
O1574     Al1580   2.010       .  S
O1575      C1582   1.274       .  A
O1576     Al1580   1.709       .  S
O1577      C1578   1.266       .  A
C1583      O1584   1.259       .  A
O1585      C1600   1.265       .  A
O1585     Al1593   1.879       .  S
C1586      O1596   1.234       .  A
C1586      O1587   1.287       .  A
C1586      C1630   1.398       .  S
O1587     Al1589   1.950       .  S
O1588      C1590   1.247       .  A
O1588     Al1589   1.836       .  S
Al1589     O1597   1.834       .  S
Al1589     O1599   1.936       .  S
Al1589     O1598   1.769       .  S
C1590      O1603   1.254       .  A
C1590      C1916   1.476   1_554  S
O1591      C1601   1.260       .  A
O1591     Al1593   1.893       .  S
O1592      C1605   1.295       .  A
O1592     Al1602   1.937       .  S
Al1593     O1606   1.835       .  S
Al1593     O1603   1.942       .  S
Al1593     O1598   1.760       .  S
O1594      C1601   1.263       .  A
O1594     Al1602   1.944       .  S
O1595      C1604   1.285       .  A
O1595     Al1602   2.126       .  S
O1596     Al1602   1.762       .  S
O1597      C1604   1.236       .  A
O1598     Al1602   1.816       .  S
O1599      C1600   1.262       .  A
C1600      C1737   1.477       .  S
C1601      C1876   1.467   1_554  S
C1604      C1626   1.567       .  S
C1605      O1606   1.261       .  A
C1605      C1688   1.476       .  S
O1607      C1622   1.262       .  A
O1607     Al1615   1.861       .  S
C1608      O1618   1.237       .  A
C1608      O1609   1.288       .  A
C1608      C1652   1.397       .  S
O1609     Al1611   1.950       .  S
O1610      C1612   1.247       .  A
O1610     Al1611   1.844       .  S
Al1611     O1619   1.834       .  S
Al1611     O1621   1.937   1_655  S
Al1611     O1620   1.770       .  S
C1612      O1625   1.256       .  A
O1613      C1623   1.257       .  A
O1614      C1627   1.296       .  A
Al1615     O1628   1.846       .  S
O1616      C1623   1.263       .  A
O1616     Al1624   1.953       .  S
O1617      C1626   1.283       .  A
O1617     Al1624   2.124       .  S
O1618     Al1624   1.764       .  S
O1619      C1626   1.236       .  A
O1620     Al1624   1.813       .  S
C1622      C1715   1.475       .  S
C1627      O1628   1.262       .  A
C1627      C1754   1.474       .  S
O1629      C1644   1.265       .  A
O1629     Al1637   1.871       .  S
C1630      O1640   1.237       .  A
C1630      O1631   1.290       .  A
O1631     Al1633   1.960       .  S
O1632      C1634   1.245       .  A
O1632     Al1633   1.836       .  S
Al1633     O1641   1.831       .  S
Al1633     O2347   1.932   1_545  S
Al1633     O1642   1.770       .  S
C1634      O1647   1.256       .  A
C1634      C1872   1.472   1_554  S
O1635      C1645   1.259       .  A
O1635     Al2341   1.888   1_545  S
O1636      C1649   1.296       .  A
O1636     Al2350   1.934       .  S
Al1637     O2339   1.888       .  S
Al1637     O1650   1.851       .  S
Al1637     O2351   1.939       .  S
Al1637     O2346   1.752       .  S
O1638      C1645   1.263       .  A
O1638     Al1646   1.953       .  S
O1639      C1648   1.282       .  A
O1639     Al1646   2.131       .  S
O1640     Al1646   1.762       .  S
O1641      C1648   1.234       .  A
O1642     Al2341   1.752   1_545  S
O1642     Al1646   1.814       .  S
O1643      C1644   1.260       .  A
O1643     Al2337   1.932       .  S
C1644      C1693   1.475       .  S
C1645      C1920   1.472   1_554  S
Al1646     O2340   1.934   1_545  S
O1647     Al2341   1.939   1_545  S
C1648      C1670   1.571       .  S
C1649      O1650   1.265       .  A
C1649      C1732   1.474       .  S
O1651      C1666   1.262       .  A
O1651     Al1659   1.866       .  S
C1652      O1662   1.234       .  A
C1652      O1653   1.285       .  A
O1653     Al1655   1.949       .  S
O1654      C1656   1.247       .  A
O1654     Al1655   1.839       .  S
Al1655     O1663   1.834       .  S
Al1655     O1665   1.944       .  S
Al1655     O1664   1.771       .  S
C1656      O1669   1.255       .  A
O1657      C1667   1.255       .  A
O1657     Al1659   1.867       .  S
O1658      C1671   1.295       .  A
O1658     Al1668   1.938       .  S
Al1659     O1672   1.841       .  S
Al1659     O1669   1.944       .  S
Al1659     O1664   1.757       .  S
O1660      C1667   1.263       .  A
O1660     Al1668   1.948       .  S
O1661      C1670   1.285       .  A
O1661     Al1668   2.130       .  S
O1662     Al1668   1.764       .  S
O1663      C1670   1.238       .  A
O1664     Al1668   1.817       .  S
O1665      C1666   1.263       .  A
C1666      C1759   1.478       .  S
C1671      O1672   1.262       .  A
C1671      C1710   1.480       .  S
O1673      C1688   1.266       .  A
O1673     Al1681   1.875       .  S
C1674      O1684   1.234       .  A
C1674      O1675   1.289       .  A
C1674      C1718   1.390       .  S
O1675     Al1677   1.945       .  S
O1676      C1678   1.246       .  A
O1676     Al1677   1.845       .  S
Al1677     O1685   1.831       .  S
Al1677     O1687   1.931       .  S
Al1677     O1686   1.768       .  S
C1678      O1691   1.256       .  A
C1678      C1784   1.479   1_554  S
O1679      C1689   1.260       .  A
O1679     Al1681   1.891       .  S
O1680      C1693   1.296       .  A
O1680     Al1690   1.937       .  S
Al1681     O1694   1.841       .  S
Al1681     O1691   1.941       .  S
Al1681     O1686   1.749       .  S
O1682      C1689   1.261       .  A
O1682     Al1690   1.939       .  S
O1683      C1692   1.280       .  A
O1683     Al1690   2.118       .  S
O1684     Al1690   1.758       .  S
O1685      C1692   1.235       .  A
O1686     Al1690   1.819       .  S
O1687      C1688   1.260       .  A
C1689      C1832   1.465   1_554  S
C1692      C1714   1.564       .  S
C1693      O1694   1.264       .  A
O1695      C1710   1.266       .  A
O1695     Al1703   1.877       .  S
C1696      O1706   1.233       .  A
C1696      O1697   1.289       .  A
C1696      C1740   1.389       .  S
O1697     Al1699   1.944       .  S
O1698      C1700   1.248       .  A
O1698     Al1699   1.848       .  S
Al1699     O1707   1.830       .  S
Al1699     O1709   1.937       .  S
Al1699     O1708   1.765       .  S
C1700      O1713   1.255       .  A
O1701      C1711   1.262       .  A
O1701     Al1703   1.879       .  S
O1702      C1715   1.295       .  A
O1702     Al1712   1.930       .  S
Al1703     O1716   1.842       .  S
Al1703     O1713   1.946       .  S
Al1703     O1708   1.748       .  S
O1704      C1711   1.253       .  A
O1704     Al1712   1.912       .  S
O1705      C1714   1.280       .  A
O1705     Al1712   2.110       .  S
O1706     Al1712   1.756       .  S
O1707      C1714   1.234       .  A
O1708     Al1712   1.824       .  S
O1709      C1710   1.262       .  A
C1715      O1716   1.264       .  A
O1717      C1732   1.271       .  A
O1717     Al1725   1.896       .  S
C1718      O1728   1.235       .  A
C1718      O1719   1.291       .  A
O1719     Al1721   1.955       .  S
O1720      C1722   1.245       .  A
O1720     Al1721   1.843       .  S
Al1721     O1729   1.827       .  S
Al1721     O1730   1.766       .  S
C1722      O1735   1.255       .  A
C1722      C1828   1.474   1_554  S
O1723      C1733   1.265       .  A
O1724      C1737   1.300       .  A
Al1725     O1738   1.847       .  S
O1726      C1733   1.256       .  A
O1726     Al1734   1.920       .  S
O1727      C1736   1.276       .  A
O1727     Al1734   2.104       .  S
O1728     Al1734   1.745       .  S
O1729      C1736   1.232       .  A
O1730     Al1734   1.820       .  S
O1731      C1732   1.259       .  A
C1733      C1788   1.462   1_554  S
C1736      C1758   1.563       .  S
C1737      O1738   1.265       .  A
O1739      C1754   1.272       .  A
O1739     Al2451   1.900   1_545  S
C1740      O1750   1.235       .  A
C1740      O1741   1.291       .  A
O1741     Al1743   1.957       .  S
O1742      C1744   1.246       .  A
O1742     Al1743   1.848       .  S
Al1743     O1751   1.828       .  S
Al1743     O1753   1.916       .  S
Al1743     O1752   1.769       .  S
C1744      O1757   1.255       .  A
O1745      C1755   1.265       .  A
O1745     Al1747   1.917       .  S
O1746      C2463   1.299       .  A
O1746     Al1756   1.940       .  S
Al1747     O2443   1.900       .  S
Al1747     O2464   1.846       .  S
Al1747     O1757   1.938       .  S
Al1747     O1752   1.744       .  S
O1748      C1755   1.255       .  A
O1748     Al1756   1.922       .  S
O1749      C1758   1.275       .  A
O1749     Al1756   2.103       .  S
O1750     Al1756   1.742       .  S
O1751      C1758   1.233       .  A
O1752     Al1756   1.818       .  S
O1753      C2458   1.259       .  A
C1754      O2457   1.259   1_545  A
C1759      O2450   1.299   1_545  A
C1759      O1760   1.266       .  A
O1760     Al2451   1.846   1_545  S
O1761      C1776   1.278       .  A
C1762      O1772   1.285       .  A
C1762      O1763   1.266       .  A
C1762      C2096   1.472       .  S
O1764      C1766   1.285       .  A
Al1765     O1773   1.865       .  S
Al1765     O1775   1.904       .  S
C1766      O1779   1.252       .  A
C1766      C2063   1.437       .  S
O1767      C1777   1.280       .  A
O1767     Al1769   1.992       .  S
O1768      C1781   1.340       .  A
O1768     Al1778   2.188       .  S
Al1769     O1782   1.824       .  S
Al1769     O1779   1.836       .  S
Al1769     O1774   1.781       .  S
O1770      C1777   1.241       .  A
O1770     Al1778   1.788       .  S
O1771      C1780   1.288       .  A
O1772     Al1778   1.996       .  S
O1773      C1780   1.270       .  A
O1774     Al1778   1.718       .  S
O1775      C1776   1.277       .  A
C1776      C1868   1.480       .  S
C1777      C1821   1.399       .  S
C1780      C1908   1.476       .  S
C1781      O1782   1.254       .  A
C1781      C1803   1.518       .  S
O1783      C1798   1.288       .  A
O1783     Al1791   1.962       .  S
C1784      O1794   1.269       .  A
C1784      O1785   1.254       .  A
O1785     Al1787   1.840       .  S
O1786      C1788   1.253   1_554  A
O1786     Al1787   1.949   1_554  S
Al1787     O1795   1.856       .  S
Al1787     O1797   1.898       .  S
Al1787     O1796   1.744       .  S
C1788      O1801   1.233       .  A
O1789      C1799   1.288       .  A
O1789     Al1791   1.921       .  S
O1790      C1803   1.297       .  A
O1790     Al1800   2.057       .  S
Al1791     O1804   1.820       .  S
Al1791     O1801   1.868       .  S
Al1791     O1796   1.762       .  S
O1792      C1799   1.259       .  A
O1792     Al1800   1.817       .  S
O1793      C1802   1.277       .  A
O1793     Al1800   1.951       .  S
O1794     Al1800   1.973       .  S
O1795      C1802   1.260       .  A
O1796     Al1800   1.776       .  S
O1797      C1798   1.280       .  A
C1798      C1934   1.477       .  S
C1799      C1843   1.406       .  S
C1802      C1886   1.487       .  S
C1803      O1804   1.230       .  A
O1805      C1820   1.287       .  A
O1805     Al1813   1.961       .  S
C1806      O1816   1.270       .  A
C1806      O1807   1.252       .  A
C1806      C2052   1.482       .  S
O1807     Al1809   1.850       .  S
O1808      C1810   1.254       .  A
O1808     Al1809   1.955       .  S
Al1809     O1817   1.864       .  S
Al1809     O1819   1.900       .  S
Al1809     O1818   1.745       .  S
C1810      O1823   1.234       .  A
C1810      C2107   1.469       .  S
O1811      C1821   1.286       .  A
O1811     Al1813   1.916       .  S
O1812      C1825   1.296       .  A
O1812     Al1822   2.047       .  S
Al1813     O1826   1.828       .  S
Al1813     O1823   1.873       .  S
Al1813     O1818   1.775       .  S
O1814      C1821   1.256       .  A
O1814     Al1822   1.807       .  S
O1815      C1824   1.273       .  A
O1815     Al1822   1.938       .  S
O1816     Al1822   1.971       .  S
O1817      C1824   1.261       .  A
O1818     Al1822   1.778       .  S
O1819      C1820   1.280       .  A
C1820      C1912   1.478       .  S
C1824      C1864   1.486       .  S
C1825      O1826   1.226       .  A
C1825      C1847   1.506       .  S
O1827      C2546   1.284       .  A
O1827     Al1835   2.000       .  S
C1828      O1838   1.285       .  A
C1828      O1829   1.268       .  A
O1829     Al1831   1.847       .  S
O1830      C1832   1.273   1_554  A
O1830     Al1831   1.949   1_554  S
Al1831     O2543   1.875       .  S
Al1831     O2545   1.890       .  S
Al1831     O1840   1.672       .  S
C1832      O1845   1.263       .  A
O1833      C1843   1.272       .  A
O1833     Al1835   1.937       .  S
O1834      C1847   1.363       .  A
O1834     Al1844   2.246       .  S
Al1835     O1848   1.786       .  S
Al1835     O1845   1.876       .  S
Al1835     O1840   1.587       .  S
O1836      C1843   1.236       .  A
O1836     Al1844   1.794       .  S
O1837      C2550   1.287       .  A
O1837     Al1844   1.940       .  S
O1838     Al1844   1.993       .  S
O1839      C1846   1.271       .  A
O1839     Al2535   1.875   1_545  S
O1840     Al1844   1.786       .  S
O1841      C1842   1.273       .  A
O1841     Al2535   1.890   1_545  S
C1842      O2531   1.283   1_545  A
C1842      C1890   1.503       .  S
C1846      O2541   1.287       .  A
C1846      C1930   1.482       .  S
C1847      O1848   1.294       .  A
O1849      C1864   1.281       .  A
O1849     Al1857   1.982       .  S
C1850      O1860   1.286       .  A
C1850      O1851   1.268       .  A
C1850      C1964   1.479       .  S
O1851     Al1853   1.855       .  S
O1852      C1854   1.316       .  A
O1852     Al1853   2.124       .  S
Al1853     O1861   1.868       .  S
Al1853     O1863   1.897       .  S
Al1853     O1862   1.762       .  S
C1854      O1867   1.298       .  A
C1854      C2019   1.461       .  S
O1855      C1865   1.270       .  A
O1855     Al1857   1.932       .  S
O1856      C1869   1.321       .  A
O1856     Al1866   2.074       .  S
Al1857     O1870   1.882       .  S
Al1857     O1867   1.795       .  S
Al1857     O1862   1.575       .  S
O1858      C1865   1.255       .  A
O1858     Al1866   1.836       .  S
O1859      C1868   1.289       .  A
O1859     Al1866   1.958       .  S
O1860     Al1866   2.003       .  S
O1861      C1868   1.268       .  A
O1862     Al1866   1.704       .  S
O1863      C1864   1.269       .  A
C1865      C1909   1.412       .  S
C1869      O1870   1.261       .  A
C1869      C1891   1.521       .  S
O1871      C1886   1.277       .  A
O1871     Al1879   1.968       .  S
C1872      O1882   1.284       .  A
C1872      O1873   1.268       .  A
O1873     Al1875   1.845       .  S
O1874      C1876   1.272   1_554  A
O1874     Al1875   1.941   1_554  S
Al1875     O1883   1.873       .  S
Al1875     O1885   1.893       .  S
Al1875     O1884   1.675       .  S
C1876      O1889   1.266       .  A
O1877      C1887   1.264       .  A
O1877     Al1879   1.912       .  S
O1878      C1891   1.364       .  A
O1878     Al1888   2.259       .  S
Al1879     O1892   1.789       .  S
Al1879     O1889   1.889       .  S
Al1879     O1884   1.594       .  S
O1880      C1887   1.243       .  A
O1880     Al1888   1.826       .  S
O1881      C1890   1.293       .  A
O1881     Al1888   1.970       .  S
O1882     Al1888   1.992       .  S
O1883      C1890   1.270       .  A
O1884     Al1888   1.784       .  S
O1885      C1886   1.273       .  A
C1887      C1931   1.405       .  S
C1891      O1892   1.294       .  A
O1893      C1908   1.280       .  A
O1893     Al2605   1.984       .  S
C1894      O1904   1.286       .  A
C1894      O1895   1.265       .  A
C1894      C2008   1.480       .  S
O1895     Al2601   1.848   1_545  S
O1896      C1898   1.318       .  A
O1896     Al2601   2.136   1_545  S
Al1897     O2599   1.848       .  S
Al1897     O2600   2.136       .  S
Al1897     O1905   1.876       .  S
Al1897     O1907   1.889       .  S
Al1897     O2610   1.760       .  S
C1898      O1911   1.299       .  A
C1898      C1975   1.465       .  S
O1899      C1909   1.271       .  A
O1899     Al1901   1.938       .  S
O1900      C1913   1.317       .  A
O1900     Al1910   2.057       .  S
Al1901     O2597   1.984   1_545  S
Al1901     O1914   1.867       .  S
Al1901     O1911   1.796       .  S
Al1901     O1906   1.577       .  S
O1902      C1909   1.252       .  A
O1902     Al1910   1.821       .  S
O1903      C1912   1.287       .  A
O1903     Al2614   1.945       .  S
O1904     Al1910   2.011       .  S
O1905      C1912   1.272       .  A
O1906     Al2601   1.760   1_545  S
O1906     Al1910   1.708       .  S
O1907      C1908   1.266       .  A
Al1910     O2607   1.945   1_545  S
C1913      O1914   1.259       .  A
C1913      C1935   1.507       .  S
O1915     Al1923   1.990   1_455  S
C1916      O1926   1.286       .  A
C1916      O1917   1.265       .  A
O1918      C1920   1.320   1_554  A
Al1919     O1927   1.882       .  S
Al1919     O1929   1.886       .  S
C1920      O1933   1.300       .  A
O1921      C1931   1.271       .  A
O1921     Al1923   1.930       .  S
O1922      C1935   1.317       .  A
O1922     Al1932   2.054       .  S
Al1923     O1936   1.868       .  S
Al1923     O1933   1.802       .  S
Al1923     O1928   1.574       .  S
O1924      C1931   1.251       .  A
O1924     Al1932   1.813       .  S
O1925      C1934   1.287       .  A
O1926     Al1932   2.010       .  S
O1927      C1934   1.274       .  A
O1928     Al1932   1.709       .  S
O1929      C1930   1.266       .  A
C1935      O1936   1.259       .  A
O1937      C1952   1.265       .  A
O1937     Al1945   1.879       .  S
C1938      O1948   1.234       .  A
C1938      O1939   1.287       .  A
C1938      C1982   1.398       .  S
O1939     Al1941   1.950       .  S
O1940      C1942   1.247       .  A
O1940     Al1941   1.836       .  S
Al1941     O1949   1.834       .  S
Al1941     O1951   1.936       .  S
Al1941     O1950   1.769       .  S
C1942      O1955   1.254       .  A
O1943      C1953   1.260       .  A
O1943     Al1945   1.893       .  S
O1944      C1957   1.295       .  A
O1944     Al1954   1.937       .  S
Al1945     O1958   1.835       .  S
Al1945     O1955   1.942       .  S
Al1945     O1950   1.760       .  S
O1946      C1953   1.263       .  A
O1946     Al1954   1.944       .  S
O1947      C1956   1.285       .  A
O1947     Al1954   2.126       .  S
O1948     Al1954   1.762       .  S
O1949      C1956   1.236       .  A
O1950     Al1954   1.816       .  S
O1951      C1952   1.262       .  A
C1952      C2089   1.477       .  S
C1956      C1978   1.567       .  S
C1957      O1958   1.261       .  A
C1957      C2040   1.476       .  S
O1959      C1974   1.262       .  A
O1959     Al1967   1.861       .  S
C1960      O1970   1.237       .  A
C1960      O1961   1.288       .  A
C1960      C2004   1.397       .  S
O1961     Al1963   1.950       .  S
O1962      C1964   1.247       .  A
O1962     Al1963   1.844       .  S
Al1963     O1971   1.834       .  S
Al1963     O1973   1.937   1_655  S
Al1963     O1972   1.770       .  S
C1964      O1977   1.256       .  A
O1965      C1975   1.257       .  A
O1966      C1979   1.296       .  A
Al1967     O1980   1.846       .  S
O1968      C1975   1.263       .  A
O1968     Al1976   1.953       .  S
O1969      C1978   1.283       .  A
O1969     Al1976   2.124       .  S
O1970     Al1976   1.764       .  S
O1971      C1978   1.236       .  A
O1972     Al1976   1.813       .  S
C1974      C2067   1.475       .  S
C1979      O1980   1.262       .  A
C1979      C2106   1.474       .  S
O1981      C1996   1.265       .  A
O1981     Al1989   1.871       .  S
C1982      O1992   1.237       .  A
C1982      O1983   1.290       .  A
O1983     Al1985   1.960       .  S
O1984      C1986   1.245       .  A
O1984     Al1985   1.836       .  S
Al1985     O1993   1.831       .  S
Al1985     O2699   1.932   1_545  S
Al1985     O1994   1.770       .  S
C1986      O1999   1.256       .  A
O1987      C1997   1.259       .  A
O1987     Al2693   1.888   1_545  S
O1988      C2001   1.296       .  A
O1988     Al2702   1.934       .  S
Al1989     O2691   1.888       .  S
Al1989     O2002   1.851       .  S
Al1989     O2703   1.939       .  S
Al1989     O2698   1.752       .  S
O1990      C1997   1.263       .  A
O1990     Al1998   1.953       .  S
O1991      C2000   1.282       .  A
O1991     Al1998   2.131       .  S
O1992     Al1998   1.762       .  S
O1993      C2000   1.234       .  A
O1994     Al2693   1.752   1_545  S
O1994     Al1998   1.814       .  S
O1995      C1996   1.260       .  A
O1995     Al2689   1.932       .  S
C1996      C2045   1.475       .  S
Al1998     O2692   1.934   1_545  S
O1999     Al2693   1.939   1_545  S
C2000      C2022   1.571       .  S
C2001      O2002   1.265       .  A
C2001      C2084   1.474       .  S
O2003      C2018   1.262       .  A
O2003     Al2011   1.866       .  S
C2004      O2014   1.234       .  A
C2004      O2005   1.285       .  A
O2005     Al2007   1.949       .  S
O2006      C2008   1.247       .  A
O2006     Al2007   1.839       .  S
Al2007     O2015   1.834       .  S
Al2007     O2017   1.944       .  S
Al2007     O2016   1.771       .  S
C2008      O2021   1.256       .  A
O2009      C2019   1.255       .  A
O2009     Al2011   1.867       .  S
O2010      C2023   1.295       .  A
O2010     Al2020   1.938       .  S
Al2011     O2024   1.841       .  S
Al2011     O2021   1.944       .  S
Al2011     O2016   1.757       .  S
O2012      C2019   1.263       .  A
O2012     Al2020   1.948       .  S
O2013      C2022   1.285       .  A
O2013     Al2020   2.130       .  S
O2014     Al2020   1.764       .  S
O2015      C2022   1.238       .  A
O2016     Al2020   1.817       .  S
O2017      C2018   1.263       .  A
C2018      C2111   1.478       .  S
C2023      O2024   1.262       .  A
C2023      C2062   1.480       .  S
O2025      C2040   1.266       .  A
O2025     Al2033   1.875       .  S
C2026      O2036   1.234       .  A
C2026      O2027   1.289       .  A
C2026      C2070   1.390       .  S
O2027     Al2029   1.945       .  S
O2028      C2030   1.246       .  A
O2028     Al2029   1.845       .  S
Al2029     O2037   1.831       .  S
Al2029     O2039   1.931       .  S
Al2029     O2038   1.768       .  S
C2030      O2043   1.256       .  A
O2031      C2041   1.260       .  A
O2031     Al2033   1.891       .  S
O2032      C2045   1.296       .  A
O2032     Al2042   1.937       .  S
Al2033     O2046   1.841       .  S
Al2033     O2043   1.941       .  S
Al2033     O2038   1.749       .  S
O2034      C2041   1.261       .  A
O2034     Al2042   1.939       .  S
O2035      C2044   1.280       .  A
O2035     Al2042   2.118       .  S
O2036     Al2042   1.758       .  S
O2037      C2044   1.235       .  A
O2038     Al2042   1.819       .  S
O2039      C2040   1.260       .  A
C2044      C2066   1.564       .  S
C2045      O2046   1.264       .  A
O2047      C2062   1.266       .  A
O2047     Al2055   1.877       .  S
C2048      O2058   1.233       .  A
C2048      O2049   1.289       .  A
C2048      C2092   1.389       .  S
O2049     Al2051   1.944       .  S
O2050      C2052   1.248       .  A
O2050     Al2051   1.848       .  S
Al2051     O2059   1.830       .  S
Al2051     O2061   1.937       .  S
Al2051     O2060   1.765       .  S
C2052      O2065   1.255       .  A
O2053      C2063   1.262       .  A
O2053     Al2055   1.879       .  S
O2054      C2067   1.295       .  A
O2054     Al2064   1.930       .  S
Al2055     O2068   1.842       .  S
Al2055     O2065   1.946       .  S
Al2055     O2060   1.748       .  S
O2056      C2063   1.253       .  A
O2056     Al2064   1.912       .  S
O2057      C2066   1.280       .  A
O2057     Al2064   2.110       .  S
O2058     Al2064   1.756       .  S
O2059      C2066   1.234       .  A
O2060     Al2064   1.824       .  S
O2061      C2062   1.262       .  A
C2067      O2068   1.264       .  A
O2069      C2084   1.271       .  A
O2069     Al2077   1.896       .  S
C2070      O2080   1.235       .  A
C2070      O2071   1.291       .  A
O2071     Al2073   1.955       .  S
O2072      C2074   1.245       .  A
O2072     Al2073   1.843       .  S
Al2073     O2081   1.827       .  S
Al2073     O2082   1.766       .  S
C2074      O2087   1.255       .  A
O2075      C2085   1.265       .  A
O2076      C2089   1.300       .  A
Al2077     O2090   1.847       .  S
O2078      C2085   1.256       .  A
O2078     Al2086   1.920       .  S
O2079      C2088   1.276       .  A
O2079     Al2086   2.104       .  S
O2080     Al2086   1.745       .  S
O2081      C2088   1.232       .  A
O2082     Al2086   1.820       .  S
O2083      C2084   1.259       .  A
C2088      C2110   1.563       .  S
C2089      O2090   1.265       .  A
O2091      C2106   1.272       .  A
O2091     Al2803   1.900   1_545  S
C2092      O2102   1.235       .  A
C2092      O2093   1.291       .  A
O2093     Al2095   1.957       .  S
O2094      C2096   1.246       .  A
O2094     Al2095   1.848       .  S
Al2095     O2103   1.828       .  S
Al2095     O2105   1.916       .  S
Al2095     O2104   1.769       .  S
C2096      O2109   1.255       .  A
O2097      C2107   1.265       .  A
O2097     Al2099   1.917       .  S
O2098      C2815   1.299       .  A
O2098     Al2108   1.940       .  S
Al2099     O2795   1.900       .  S
Al2099     O2816   1.846       .  S
Al2099     O2109   1.938       .  S
Al2099     O2104   1.744       .  S
O2100      C2107   1.255       .  A
O2100     Al2108   1.922       .  S
O2101      C2110   1.275       .  A
O2101     Al2108   2.103       .  S
O2102     Al2108   1.742       .  S
O2103      C2110   1.233       .  A
O2104     Al2108   1.818       .  S
O2105      C2810   1.259       .  A
C2106      O2809   1.259   1_545  A
C2111      O2802   1.299   1_545  A
C2111      O2112   1.266       .  A
O2112     Al2803   1.846   1_545  S
O2113      C2128   1.278       .  A
C2114      O2124   1.285       .  A
C2114      O2115   1.266       .  A
C2114      C2448   1.472       .  S
O2116      C2118   1.285       .  A
Al2117     O2125   1.865       .  S
Al2117     O2127   1.904       .  S
C2118      O2131   1.252       .  A
C2118      C2415   1.437       .  S
O2119      C2129   1.280       .  A
O2119     Al2121   1.992       .  S
O2120      C2133   1.340       .  A
O2120     Al2130   2.188       .  S
Al2121     O2134   1.824       .  S
Al2121     O2131   1.836       .  S
Al2121     O2126   1.781       .  S
O2122      C2129   1.241       .  A
O2122     Al2130   1.788       .  S
O2123      C2132   1.288       .  A
O2124     Al2130   1.996       .  S
O2125      C2132   1.270       .  A
O2126     Al2130   1.718       .  S
O2127      C2128   1.277       .  A
C2128      C2220   1.480       .  S
C2129      C2173   1.399       .  S
C2132      C2260   1.476       .  S
C2133      O2134   1.254       .  A
C2133      C2155   1.518       .  S
O2135      C2150   1.288       .  A
O2135     Al2143   1.962       .  S
C2136      O2146   1.269       .  A
C2136      O2137   1.254       .  A
C2136      C2734   1.479       .  S
O2137     Al2139   1.840       .  S
O2138      C2140   1.253       .  A
O2138     Al2139   1.949       .  S
Al2139     O2147   1.856       .  S
Al2139     O2149   1.898       .  S
Al2139     O2148   1.744       .  S
C2140      O2153   1.233       .  A
C2140      C2789   1.462       .  S
O2141      C2151   1.288       .  A
O2141     Al2143   1.921       .  S
O2142      C2155   1.297       .  A
O2142     Al2152   2.057       .  S
Al2143     O2156   1.820       .  S
Al2143     O2153   1.868       .  S
Al2143     O2148   1.762       .  S
O2144      C2151   1.259       .  A
O2144     Al2152   1.817       .  S
O2145      C2154   1.277       .  A
O2145     Al2152   1.951       .  S
O2146     Al2152   1.973       .  S
O2147      C2154   1.260       .  A
O2148     Al2152   1.776       .  S
O2149      C2150   1.280       .  A
C2150      C2286   1.477       .  S
C2151      C2195   1.406       .  S
C2154      C2238   1.487       .  S
C2155      O2156   1.230       .  A
O2157      C2172   1.287       .  A
O2157     Al2165   1.961       .  S
C2158      O2168   1.270       .  A
C2158      O2159   1.252       .  A
C2158      C2404   1.482       .  S
O2159     Al2161   1.849       .  S
O2160      C2162   1.254       .  A
O2160     Al2161   1.955       .  S
Al2161     O2169   1.864       .  S
Al2161     O2171   1.900       .  S
Al2161     O2170   1.745       .  S
C2162      O2175   1.234       .  A
C2162      C2459   1.469       .  S
O2163      C2173   1.286       .  A
O2163     Al2165   1.916       .  S
O2164      C2177   1.296       .  A
O2164     Al2174   2.047       .  S
Al2165     O2178   1.828       .  S
Al2165     O2175   1.873       .  S
Al2165     O2170   1.775       .  S
O2166      C2173   1.256       .  A
O2166     Al2174   1.807       .  S
O2167      C2176   1.273       .  A
O2167     Al2174   1.938       .  S
O2168     Al2174   1.971       .  S
O2169      C2176   1.261       .  A
O2170     Al2174   1.778       .  S
O2171      C2172   1.280       .  A
C2172      C2264   1.478       .  S
C2176      C2216   1.486       .  S
C2177      O2178   1.226       .  A
C2177      C2199   1.506       .  S
O2179     Al2187   2.000       .  S
C2180      O2190   1.285       .  A
C2180      O2181   1.268       .  A
C2180      C2778   1.474       .  S
O2181     Al2183   1.847       .  S
O2182      C2184   1.273       .  A
O2182     Al2183   1.949       .  S
Al2183     O2192   1.672       .  S
C2184      O2197   1.263       .  A
C2184      C2745   1.465       .  S
O2185      C2195   1.272       .  A
O2185     Al2187   1.937       .  S
O2186      C2199   1.363       .  A
O2186     Al2196   2.246       .  S
Al2187     O2200   1.786       .  S
Al2187     O2197   1.876       .  S
Al2187     O2192   1.587       .  S
O2188      C2195   1.236       .  A
O2188     Al2196   1.794       .  S
O2189     Al2196   1.940   1_545  S
O2190     Al2196   1.993       .  S
O2191      C2198   1.271       .  A
O2192     Al2196   1.786       .  S
O2193      C2194   1.273       .  A
C2194      C2242   1.503       .  S
C2198      C2282   1.482       .  S
C2199      O2200   1.294       .  A
O2201      C2216   1.281       .  A
O2201     Al2209   1.982       .  S
C2202      O2212   1.286       .  A
C2202      O2203   1.268       .  A
C2202      C2316   1.479       .  S
O2203     Al2205   1.855       .  S
O2204      C2206   1.316       .  A
O2204     Al2205   2.124       .  S
Al2205     O2213   1.868       .  S
Al2205     O2215   1.897       .  S
Al2205     O2214   1.762       .  S
C2206      O2219   1.298       .  A
C2206      C2371   1.461       .  S
O2207      C2217   1.270       .  A
O2207     Al2209   1.932       .  S
O2208      C2221   1.321       .  A
O2208     Al2218   2.074       .  S
Al2209     O2222   1.882       .  S
Al2209     O2219   1.795       .  S
Al2209     O2214   1.575       .  S
O2210      C2217   1.255       .  A
O2210     Al2218   1.836       .  S
O2211      C2220   1.289       .  A
O2211     Al2218   1.958       .  S
O2212     Al2218   2.003       .  S
O2213      C2220   1.268       .  A
O2214     Al2218   1.704       .  S
O2215      C2216   1.269       .  A
C2217      C2261   1.412       .  S
C2221      O2222   1.261       .  A
C2221      C2243   1.521       .  S
O2223      C2238   1.277       .  A
O2223     Al2231   1.968       .  S
C2224      O2234   1.284       .  A
C2224      O2225   1.268       .  A
C2224      C2690   1.472       .  S
O2225     Al2227   1.845       .  S
O2226      C2228   1.272       .  A
O2226     Al2227   1.941       .  S
Al2227     O2235   1.873       .  S
Al2227     O2237   1.893       .  S
Al2227     O2236   1.675       .  S
C2228      O2241   1.266       .  A
C2228      C2657   1.467       .  S
O2229      C2239   1.264       .  A
O2229     Al2231   1.912       .  S
O2230      C2243   1.364       .  A
O2230     Al2240   2.259       .  S
Al2231     O2244   1.789       .  S
Al2231     O2241   1.889       .  S
Al2231     O2236   1.594       .  S
O2232      C2239   1.243       .  A
O2232     Al2240   1.826       .  S
O2233      C2242   1.293       .  A
O2233     Al2240   1.970       .  S
O2234     Al2240   1.992       .  S
O2235      C2242   1.270       .  A
O2236     Al2240   1.784       .  S
O2237      C2238   1.273       .  A
C2239      C2283   1.405       .  S
C2243      O2244   1.294       .  A
O2245      C2260   1.280       .  A
C2246      O2256   1.286       .  A
C2246      O2247   1.265       .  A
C2246      C2360   1.480       .  S
O2248      C2250   1.318       .  A
Al2249     O2257   1.876       .  S
Al2249     O2259   1.889       .  S
C2250      O2263   1.299       .  A
C2250      C2327   1.465       .  S
O2251      C2261   1.271       .  A
O2251     Al2253   1.938       .  S
O2252      C2265   1.317       .  A
O2252     Al2262   2.057       .  S
Al2253     O2266   1.867       .  S
Al2253     O2263   1.796       .  S
Al2253     O2258   1.577       .  S
O2254      C2261   1.252       .  A
O2254     Al2262   1.821       .  S
O2255      C2264   1.287       .  A
O2256     Al2262   2.011       .  S
O2257      C2264   1.272       .  A
O2258     Al2262   1.708       .  S
O2259      C2260   1.266       .  A
C2265      O2266   1.259       .  A
C2265      C2287   1.507       .  S
O2267     Al2275   1.990   1_455  S
C2268      O2278   1.286       .  A
C2268      O2269   1.265       .  A
C2268      C2646   1.476       .  S
O2270      C2272   1.320       .  A
Al2271     O2279   1.882       .  S
Al2271     O2281   1.886       .  S
C2272      O2285   1.300       .  A
C2272      C2701   1.472       .  S
O2273      C2283   1.271       .  A
O2273     Al2275   1.930       .  S
O2274      C2287   1.317       .  A
O2274     Al2284   2.054       .  S
Al2275     O2288   1.868       .  S
Al2275     O2285   1.802       .  S
Al2275     O2280   1.574       .  S
O2276      C2283   1.251       .  A
O2276     Al2284   1.813       .  S
O2277      C2286   1.287       .  A
O2278     Al2284   2.010       .  S
O2279      C2286   1.274       .  A
O2280     Al2284   1.709       .  S
O2281      C2282   1.266       .  A
C2287      O2288   1.259       .  A
O2289      C2304   1.265       .  A
O2289     Al2297   1.879       .  S
C2290      O2300   1.234       .  A
C2290      O2291   1.287       .  A
C2290      C2334   1.398       .  S
O2291     Al2293   1.950       .  S
O2292      C2294   1.247       .  A
O2292     Al2293   1.836       .  S
Al2293     O2301   1.834       .  S
Al2293     O2303   1.936       .  S
Al2293     O2302   1.769       .  S
C2294      O2307   1.255       .  A
C2294      C2620   1.476   1_554  S
O2295      C2305   1.260       .  A
O2295     Al2297   1.893       .  S
O2296      C2309   1.295       .  A
O2296     Al2306   1.937       .  S
Al2297     O2310   1.835       .  S
Al2297     O2307   1.942       .  S
Al2297     O2302   1.760       .  S
O2298      C2305   1.263       .  A
O2298     Al2306   1.944       .  S
O2299      C2308   1.285       .  A
O2299     Al2306   2.126       .  S
O2300     Al2306   1.762       .  S
O2301      C2308   1.236       .  A
O2302     Al2306   1.816       .  S
O2303      C2304   1.262       .  A
C2304      C2441   1.477       .  S
C2305      C2580   1.467   1_554  S
C2308      C2330   1.567       .  S
C2309      O2310   1.261       .  A
C2309      C2392   1.476       .  S
O2311      C2326   1.262       .  A
O2311     Al2319   1.861       .  S
C2312      O2322   1.237       .  A
C2312      O2313   1.288       .  A
C2312      C2356   1.397       .  S
O2313     Al2315   1.950       .  S
O2314      C2316   1.247       .  A
O2314     Al2315   1.844       .  S
Al2315     O2323   1.834       .  S
Al2315     O2325   1.937   1_655  S
Al2315     O2324   1.770       .  S
C2316      O2329   1.256       .  A
O2317      C2327   1.257       .  A
O2318      C2331   1.296       .  A
Al2319     O2332   1.846       .  S
O2320      C2327   1.263       .  A
O2320     Al2328   1.953       .  S
O2321      C2330   1.283       .  A
O2321     Al2328   2.124       .  S
O2322     Al2328   1.764       .  S
O2323      C2330   1.236       .  A
O2324     Al2328   1.813       .  S
C2326      C2419   1.475       .  S
C2331      O2332   1.262       .  A
C2331      C2458   1.474       .  S
O2333      C2348   1.265       .  A
O2333     Al2341   1.871       .  S
C2334      O2344   1.237       .  A
C2334      O2335   1.290       .  A
O2335     Al2337   1.960       .  S
O2336      C2338   1.245       .  A
O2336     Al2337   1.836       .  S
Al2337     O2345   1.831       .  S
Al2337     O2346   1.770       .  S
C2338      O2351   1.256       .  A
C2338      C2576   1.472   1_554  S
O2339      C2349   1.259       .  A
O2340      C2353   1.296       .  A
Al2341     O2354   1.851       .  S
O2342      C2349   1.263       .  A
O2342     Al2350   1.953       .  S
O2343      C2352   1.282       .  A
O2343     Al2350   2.131       .  S
O2344     Al2350   1.762       .  S
O2345      C2352   1.234       .  A
O2346     Al2350   1.814       .  S
O2347      C2348   1.260       .  A
C2348      C2397   1.475       .  S
C2349      C2624   1.472   1_554  S
C2352      C2374   1.571       .  S
C2353      O2354   1.265       .  A
C2353      C2436   1.473       .  S
O2355      C2370   1.262       .  A
O2355     Al2363   1.866       .  S
C2356      O2366   1.234       .  A
C2356      O2357   1.285       .  A
O2357     Al2359   1.949       .  S
O2358      C2360   1.247       .  A
O2358     Al2359   1.839       .  S
Al2359     O2367   1.834       .  S
Al2359     O2369   1.944       .  S
Al2359     O2368   1.771       .  S
C2360      O2373   1.255       .  A
O2361      C2371   1.255       .  A
O2361     Al2363   1.867       .  S
O2362      C2375   1.295       .  A
O2362     Al2372   1.938       .  S
Al2363     O2376   1.841       .  S
Al2363     O2373   1.944       .  S
Al2363     O2368   1.757       .  S
O2364      C2371   1.263       .  A
O2364     Al2372   1.948       .  S
O2365      C2374   1.285       .  A
O2365     Al2372   2.130       .  S
O2366     Al2372   1.764       .  S
O2367      C2374   1.238       .  A
O2368     Al2372   1.817       .  S
O2369      C2370   1.263       .  A
C2370      C2463   1.478       .  S
C2375      O2376   1.262       .  A
C2375      C2414   1.480       .  S
O2377      C2392   1.266       .  A
O2377     Al2385   1.875       .  S
C2378      O2388   1.234       .  A
C2378      O2379   1.289       .  A
C2378      C2422   1.390       .  S
O2379     Al2381   1.945       .  S
O2380      C2382   1.246       .  A
O2380     Al2381   1.845       .  S
Al2381     O2389   1.831       .  S
Al2381     O2391   1.931       .  S
Al2381     O2390   1.768       .  S
C2382      O2395   1.256       .  A
C2382      C2488   1.479   1_554  S
O2383      C2393   1.260       .  A
O2383     Al2385   1.891       .  S
O2384      C2397   1.296       .  A
O2384     Al2394   1.937       .  S
Al2385     O2398   1.841       .  S
Al2385     O2395   1.941       .  S
Al2385     O2390   1.749       .  S
O2386      C2393   1.261       .  A
O2386     Al2394   1.939       .  S
O2387      C2396   1.280       .  A
O2387     Al2394   2.118       .  S
O2388     Al2394   1.758       .  S
O2389      C2396   1.234       .  A
O2390     Al2394   1.819       .  S
O2391      C2392   1.260       .  A
C2393      C2536   1.465   1_554  S
C2396      C2418   1.564       .  S
C2397      O2398   1.264       .  A
O2399      C2414   1.266       .  A
O2399     Al2407   1.877       .  S
C2400      O2410   1.233       .  A
C2400      O2401   1.289       .  A
C2400      C2444   1.389       .  S
O2401     Al2403   1.944       .  S
O2402      C2404   1.248       .  A
O2402     Al2403   1.848       .  S
Al2403     O2411   1.830       .  S
Al2403     O2413   1.937       .  S
Al2403     O2412   1.765       .  S
C2404      O2417   1.255       .  A
O2405      C2415   1.262       .  A
O2405     Al2407   1.879       .  S
O2406      C2419   1.295       .  A
O2406     Al2416   1.930       .  S
Al2407     O2420   1.842       .  S
Al2407     O2417   1.946       .  S
Al2407     O2412   1.748       .  S
O2408      C2415   1.253       .  A
O2408     Al2416   1.912       .  S
O2409      C2418   1.280       .  A
O2409     Al2416   2.110       .  S
O2410     Al2416   1.756       .  S
O2411      C2418   1.234       .  A
O2412     Al2416   1.824       .  S
O2413      C2414   1.262       .  A
C2419      O2420   1.264       .  A
O2421      C2436   1.271       .  A
O2421     Al2429   1.896       .  S
C2422      O2432   1.235       .  A
C2422      O2423   1.291       .  A
O2423     Al2425   1.955       .  S
O2424      C2426   1.245       .  A
O2424     Al2425   1.843       .  S
Al2425     O2433   1.827       .  S
Al2425     O2434   1.766       .  S
C2426      O2439   1.255       .  A
C2426      C2532   1.474   1_554  S
O2427      C2437   1.265       .  A
O2428      C2441   1.300       .  A
Al2429     O2442   1.847       .  S
O2430      C2437   1.256       .  A
O2430     Al2438   1.920       .  S
O2431      C2440   1.276       .  A
O2431     Al2438   2.104       .  S
O2432     Al2438   1.745       .  S
O2433      C2440   1.232       .  A
O2434     Al2438   1.820       .  S
O2435      C2436   1.259       .  A
C2437      C2492   1.462   1_554  S
C2440      C2462   1.563       .  S
C2441      O2442   1.265       .  A
O2443      C2458   1.272       .  A
C2444      O2454   1.235       .  A
C2444      O2445   1.291       .  A
O2445     Al2447   1.957       .  S
O2446      C2448   1.246       .  A
O2446     Al2447   1.848       .  S
Al2447     O2455   1.828       .  S
Al2447     O2457   1.917       .  S
Al2447     O2456   1.769       .  S
C2448      O2461   1.255       .  A
O2449      C2459   1.265       .  A
O2449     Al2451   1.917       .  S
O2450     Al2460   1.940       .  S
Al2451     O2461   1.938       .  S
Al2451     O2456   1.744       .  S
O2452      C2459   1.255       .  A
O2452     Al2460   1.922       .  S
O2453      C2462   1.276       .  A
O2453     Al2460   2.103       .  S
O2454     Al2460   1.742       .  S
O2455      C2462   1.233       .  A
O2456     Al2460   1.818       .  S
C2463      O2464   1.266       .  A
O2465      C2480   1.278       .  A
C2466      O2476   1.285       .  A
C2466      O2467   1.266       .  A
C2466      C2800   1.472       .  S
O2468      C2470   1.285       .  A
Al2469     O2477   1.865       .  S
Al2469     O2479   1.904       .  S
C2470      O2483   1.252       .  A
C2470      C2767   1.437       .  S
O2471      C2481   1.280       .  A
O2471     Al2473   1.992       .  S
O2472      C2485   1.340       .  A
O2472     Al2482   2.188       .  S
Al2473     O2486   1.824       .  S
Al2473     O2483   1.836       .  S
Al2473     O2478   1.781       .  S
O2474      C2481   1.241       .  A
O2474     Al2482   1.788       .  S
O2475      C2484   1.288       .  A
O2476     Al2482   1.996       .  S
O2477      C2484   1.270       .  A
O2478     Al2482   1.718       .  S
O2479      C2480   1.277       .  A
C2480      C2572   1.480       .  S
C2481      C2525   1.399       .  S
C2484      C2612   1.476       .  S
C2485      O2486   1.254       .  A
C2485      C2507   1.518       .  S
O2487      C2502   1.288       .  A
O2487     Al2495   1.962       .  S
C2488      O2498   1.269       .  A
C2488      O2489   1.254       .  A
O2489     Al2491   1.840       .  S
O2490      C2492   1.253   1_554  A
O2490     Al2491   1.949   1_554  S
Al2491     O2499   1.856       .  S
Al2491     O2501   1.898       .  S
Al2491     O2500   1.744       .  S
C2492      O2505   1.233       .  A
O2493      C2503   1.288       .  A
O2493     Al2495   1.921       .  S
O2494      C2507   1.297       .  A
O2494     Al2504   2.057       .  S
Al2495     O2508   1.820       .  S
Al2495     O2505   1.868       .  S
Al2495     O2500   1.762       .  S
O2496      C2503   1.259       .  A
O2496     Al2504   1.817       .  S
O2497      C2506   1.277       .  A
O2497     Al2504   1.951       .  S
O2498     Al2504   1.973       .  S
O2499      C2506   1.260       .  A
O2500     Al2504   1.776       .  S
O2501      C2502   1.280       .  A
C2502      C2638   1.477       .  S
C2503      C2547   1.406       .  S
C2506      C2590   1.487       .  S
C2507      O2508   1.230       .  A
O2509      C2524   1.287       .  A
O2509     Al2517   1.961       .  S
C2510      O2520   1.270       .  A
C2510      O2511   1.252       .  A
C2510      C2756   1.482       .  S
O2511     Al2513   1.849       .  S
O2512      C2514   1.254       .  A
O2512     Al2513   1.955       .  S
Al2513     O2521   1.864       .  S
Al2513     O2523   1.900       .  S
Al2513     O2522   1.745       .  S
C2514      O2527   1.234       .  A
C2514      C2811   1.469       .  S
O2515      C2525   1.286       .  A
O2515     Al2517   1.916       .  S
O2516      C2529   1.296       .  A
O2516     Al2526   2.047       .  S
Al2517     O2530   1.828       .  S
Al2517     O2527   1.873       .  S
Al2517     O2522   1.775       .  S
O2518      C2525   1.256       .  A
O2518     Al2526   1.807       .  S
O2519      C2528   1.273       .  A
O2519     Al2526   1.938       .  S
O2520     Al2526   1.971       .  S
O2521      C2528   1.261       .  A
O2522     Al2526   1.778       .  S
O2523      C2524   1.280       .  A
C2524      C2616   1.478       .  S
C2528      C2568   1.486       .  S
C2529      O2530   1.226       .  A
C2529      C2551   1.506       .  S
O2531     Al2539   2.000       .  S
C2532      O2542   1.285       .  A
C2532      O2533   1.268       .  A
O2533     Al2535   1.847       .  S
O2534      C2536   1.273   1_554  A
O2534     Al2535   1.949   1_554  S
Al2535     O2544   1.672       .  S
C2536      O2549   1.263       .  A
O2537      C2547   1.272       .  A
O2537     Al2539   1.937       .  S
O2538      C2551   1.363       .  A
O2538     Al2548   2.246       .  S
Al2539     O2552   1.786       .  S
Al2539     O2549   1.876       .  S
Al2539     O2544   1.587       .  S
O2540      C2547   1.236       .  A
O2540     Al2548   1.794       .  S
O2541     Al2548   1.940   1_545  S
O2542     Al2548   1.993       .  S
O2543      C2550   1.271       .  A
O2544     Al2548   1.786       .  S
O2545      C2546   1.273       .  A
C2546      C2594   1.503       .  S
C2550      C2634   1.482       .  S
C2551      O2552   1.294       .  A
O2553      C2568   1.281       .  A
O2553     Al2561   1.982       .  S
C2554      O2564   1.286       .  A
C2554      O2555   1.268       .  A
C2554      C2668   1.479       .  S
O2555     Al2557   1.855       .  S
O2556      C2558   1.316       .  A
O2556     Al2557   2.124       .  S
Al2557     O2565   1.868       .  S
Al2557     O2567   1.897       .  S
Al2557     O2566   1.762       .  S
C2558      O2571   1.298       .  A
C2558      C2723   1.461       .  S
O2559      C2569   1.270       .  A
O2559     Al2561   1.932       .  S
O2560      C2573   1.321       .  A
O2560     Al2570   2.074       .  S
Al2561     O2574   1.882       .  S
Al2561     O2571   1.795       .  S
Al2561     O2566   1.575       .  S
O2562      C2569   1.255       .  A
O2562     Al2570   1.836       .  S
O2563      C2572   1.289       .  A
O2563     Al2570   1.958       .  S
O2564     Al2570   2.003       .  S
O2565      C2572   1.268       .  A
O2566     Al2570   1.704       .  S
O2567      C2568   1.269       .  A
C2569      C2613   1.412       .  S
C2573      O2574   1.261       .  A
C2573      C2595   1.521       .  S
O2575      C2590   1.277       .  A
O2575     Al2583   1.968       .  S
C2576      O2586   1.284       .  A
C2576      O2577   1.268       .  A
O2577     Al2579   1.845       .  S
O2578      C2580   1.272   1_554  A
O2578     Al2579   1.941   1_554  S
Al2579     O2587   1.873       .  S
Al2579     O2589   1.893       .  S
Al2579     O2588   1.675       .  S
C2580      O2593   1.266       .  A
O2581      C2591   1.264       .  A
O2581     Al2583   1.912       .  S
O2582      C2595   1.364       .  A
O2582     Al2592   2.259       .  S
Al2583     O2596   1.789       .  S
Al2583     O2593   1.889       .  S
Al2583     O2588   1.594       .  S
O2584      C2591   1.243       .  A
O2584     Al2592   1.826       .  S
O2585      C2594   1.293       .  A
O2585     Al2592   1.970       .  S
O2586     Al2592   1.992       .  S
O2587      C2594   1.270       .  A
O2588     Al2592   1.784       .  S
O2589      C2590   1.273       .  A
C2591      C2635   1.405       .  S
C2595      O2596   1.294       .  A
O2597      C2612   1.280       .  A
C2598      O2608   1.286       .  A
C2598      O2599   1.265       .  A
C2598      C2712   1.480       .  S
O2600      C2602   1.318       .  A
Al2601     O2609   1.876       .  S
Al2601     O2611   1.889       .  S
C2602      O2615   1.299       .  A
C2602      C2679   1.465       .  S
O2603      C2613   1.271       .  A
O2603     Al2605   1.938       .  S
O2604      C2617   1.317       .  A
O2604     Al2614   2.057       .  S
Al2605     O2618   1.867       .  S
Al2605     O2615   1.796       .  S
Al2605     O2610   1.577       .  S
O2606      C2613   1.252       .  A
O2606     Al2614   1.821       .  S
O2607      C2616   1.287       .  A
O2608     Al2614   2.011       .  S
O2609      C2616   1.272       .  A
O2610     Al2614   1.708       .  S
O2611      C2612   1.266       .  A
C2617      O2618   1.259       .  A
C2617      C2639   1.507       .  S
O2619     Al2627   1.990   1_455  S
C2620      O2630   1.286       .  A
C2620      O2621   1.265       .  A
O2622      C2624   1.320   1_554  A
Al2623     O2631   1.882       .  S
Al2623     O2633   1.886       .  S
C2624      O2637   1.300       .  A
O2625      C2635   1.271       .  A
O2625     Al2627   1.930       .  S
O2626      C2639   1.317       .  A
O2626     Al2636   2.054       .  S
Al2627     O2640   1.868       .  S
Al2627     O2637   1.802       .  S
Al2627     O2632   1.574       .  S
O2628      C2635   1.251       .  A
O2628     Al2636   1.813       .  S
O2629      C2638   1.287       .  A
O2630     Al2636   2.010       .  S
O2631      C2638   1.274       .  A
O2632     Al2636   1.709       .  S
O2633      C2634   1.266       .  A
C2639      O2640   1.260       .  A
O2641      C2656   1.265       .  A
O2641     Al2649   1.879       .  S
C2642      O2652   1.234       .  A
C2642      O2643   1.287       .  A
C2642      C2686   1.398       .  S
O2643     Al2645   1.950       .  S
O2644      C2646   1.247       .  A
O2644     Al2645   1.836       .  S
Al2645     O2653   1.834       .  S
Al2645     O2655   1.936       .  S
Al2645     O2654   1.769       .  S
C2646      O2659   1.254       .  A
O2647      C2657   1.260       .  A
O2647     Al2649   1.893       .  S
O2648      C2661   1.295       .  A
O2648     Al2658   1.937       .  S
Al2649     O2662   1.835       .  S
Al2649     O2659   1.942       .  S
Al2649     O2654   1.760       .  S
O2650      C2657   1.263       .  A
O2650     Al2658   1.944       .  S
O2651      C2660   1.285       .  A
O2651     Al2658   2.126       .  S
O2652     Al2658   1.762       .  S
O2653      C2660   1.236       .  A
O2654     Al2658   1.816       .  S
O2655      C2656   1.262       .  A
C2656      C2793   1.477       .  S
C2660      C2682   1.567       .  S
C2661      O2662   1.261       .  A
C2661      C2744   1.476       .  S
O2663      C2678   1.262       .  A
O2663     Al2671   1.861       .  S
C2664      O2674   1.237       .  A
C2664      O2665   1.288       .  A
C2664      C2708   1.397       .  S
O2665     Al2667   1.950       .  S
O2666      C2668   1.247       .  A
O2666     Al2667   1.844       .  S
Al2667     O2675   1.834       .  S
Al2667     O2677   1.937   1_655  S
Al2667     O2676   1.770       .  S
C2668      O2681   1.256       .  A
O2669      C2679   1.257       .  A
O2670      C2683   1.296       .  A
Al2671     O2684   1.846       .  S
O2672      C2679   1.263       .  A
O2672     Al2680   1.953       .  S
O2673      C2682   1.283       .  A
O2673     Al2680   2.124       .  S
O2674     Al2680   1.764       .  S
O2675      C2682   1.236       .  A
O2676     Al2680   1.813       .  S
C2678      C2771   1.475       .  S
C2683      O2684   1.262       .  A
C2683      C2810   1.474       .  S
O2685      C2700   1.265       .  A
O2685     Al2693   1.871       .  S
C2686      O2696   1.237       .  A
C2686      O2687   1.290       .  A
O2687     Al2689   1.960       .  S
O2688      C2690   1.245       .  A
O2688     Al2689   1.836       .  S
Al2689     O2697   1.831       .  S
Al2689     O2698   1.770       .  S
C2690      O2703   1.256       .  A
O2691      C2701   1.259       .  A
O2692      C2705   1.296       .  A
Al2693     O2706   1.851       .  S
O2694      C2701   1.263       .  A
O2694     Al2702   1.953       .  S
O2695      C2704   1.282       .  A
O2695     Al2702   2.131       .  S
O2696     Al2702   1.762       .  S
O2697      C2704   1.234       .  A
O2698     Al2702   1.814       .  S
O2699      C2700   1.260       .  A
C2700      C2749   1.475       .  S
C2704      C2726   1.571       .  S
C2705      O2706   1.265       .  A
C2705      C2788   1.473       .  S
O2707      C2722   1.262       .  A
O2707     Al2715   1.866       .  S
C2708      O2718   1.234       .  A
C2708      O2709   1.285       .  A
O2709     Al2711   1.949       .  S
O2710      C2712   1.247       .  A
O2710     Al2711   1.839       .  S
Al2711     O2719   1.834       .  S
Al2711     O2721   1.944       .  S
Al2711     O2720   1.771       .  S
C2712      O2725   1.256       .  A
O2713      C2723   1.255       .  A
O2713     Al2715   1.867       .  S
O2714      C2727   1.295       .  A
O2714     Al2724   1.938       .  S
Al2715     O2728   1.841       .  S
Al2715     O2725   1.944       .  S
Al2715     O2720   1.757       .  S
O2716      C2723   1.263       .  A
O2716     Al2724   1.948       .  S
O2717      C2726   1.285       .  A
O2717     Al2724   2.130       .  S
O2718     Al2724   1.764       .  S
O2719      C2726   1.238       .  A
O2720     Al2724   1.817       .  S
O2721      C2722   1.263       .  A
C2722      C2815   1.478       .  S
C2727      O2728   1.262       .  A
C2727      C2766   1.480       .  S
O2729      C2744   1.266       .  A
O2729     Al2737   1.875       .  S
C2730      O2740   1.234       .  A
C2730      O2731   1.289       .  A
C2730      C2774   1.390       .  S
O2731     Al2733   1.945       .  S
O2732      C2734   1.246       .  A
O2732     Al2733   1.845       .  S
Al2733     O2741   1.831       .  S
Al2733     O2743   1.931       .  S
Al2733     O2742   1.768       .  S
C2734      O2747   1.256       .  A
O2735      C2745   1.260       .  A
O2735     Al2737   1.891       .  S
O2736      C2749   1.296       .  A
O2736     Al2746   1.937       .  S
Al2737     O2750   1.841       .  S
Al2737     O2747   1.941       .  S
Al2737     O2742   1.749       .  S
O2738      C2745   1.261       .  A
O2738     Al2746   1.939       .  S
O2739      C2748   1.280       .  A
O2739     Al2746   2.118       .  S
O2740     Al2746   1.758       .  S
O2741      C2748   1.235       .  A
O2742     Al2746   1.819       .  S
O2743      C2744   1.260       .  A
C2748      C2770   1.564       .  S
C2749      O2750   1.264       .  A
O2751      C2766   1.266       .  A
O2751     Al2759   1.877       .  S
C2752      O2762   1.233       .  A
C2752      O2753   1.289       .  A
C2752      C2796   1.389       .  S
O2753     Al2755   1.944       .  S
O2754      C2756   1.248       .  A
O2754     Al2755   1.848       .  S
Al2755     O2763   1.830       .  S
Al2755     O2765   1.937       .  S
Al2755     O2764   1.765       .  S
C2756      O2769   1.255       .  A
O2757      C2767   1.262       .  A
O2757     Al2759   1.879       .  S
O2758      C2771   1.295       .  A
O2758     Al2768   1.930       .  S
Al2759     O2772   1.842       .  S
Al2759     O2769   1.946       .  S
Al2759     O2764   1.748       .  S
O2760      C2767   1.253       .  A
O2760     Al2768   1.912       .  S
O2761      C2770   1.280       .  A
O2761     Al2768   2.110       .  S
O2762     Al2768   1.756       .  S
O2763      C2770   1.234       .  A
O2764     Al2768   1.824       .  S
O2765      C2766   1.262       .  A
C2771      O2772   1.264       .  A
O2773      C2788   1.271       .  A
O2773     Al2781   1.896       .  S
C2774      O2784   1.235       .  A
C2774      O2775   1.291       .  A
O2775     Al2777   1.955       .  S
O2776      C2778   1.245       .  A
O2776     Al2777   1.843       .  S
Al2777     O2785   1.827       .  S
Al2777     O2786   1.766       .  S
C2778      O2791   1.255       .  A
O2779      C2789   1.265       .  A
O2780      C2793   1.300       .  A
Al2781     O2794   1.847       .  S
O2782      C2789   1.256       .  A
O2782     Al2790   1.920       .  S
O2783      C2792   1.276       .  A
O2783     Al2790   2.104       .  S
O2784     Al2790   1.745       .  S
O2785      C2792   1.232       .  A
O2786     Al2790   1.820       .  S
O2787      C2788   1.259       .  A
C2792      C2814   1.563       .  S
C2793      O2794   1.265       .  A
O2795      C2810   1.272       .  A
C2796      O2806   1.235       .  A
C2796      O2797   1.291       .  A
O2797     Al2799   1.957       .  S
O2798      C2800   1.246       .  A
O2798     Al2799   1.848       .  S
Al2799     O2807   1.828       .  S
Al2799     O2809   1.917       .  S
Al2799     O2808   1.769       .  S
C2800      O2813   1.255       .  A
O2801      C2811   1.265       .  A
O2801     Al2803   1.917       .  S
O2802     Al2812   1.940       .  S
Al2803     O2813   1.938       .  S
Al2803     O2808   1.744       .  S
O2804      C2811   1.255       .  A
O2804     Al2812   1.922       .  S
O2805      C2814   1.276       .  A
O2805     Al2812   2.103       .  S
O2806     Al2812   1.742       .  S
O2807      C2814   1.233       .  A
O2808     Al2812   1.818       .  S
C2815      O2816   1.266       .  A
